
---------- Begin Simulation Statistics ----------
simSeconds                                   0.035003                       # Number of seconds simulated (Second)
simTicks                                  35002733000                       # Number of ticks simulated (Tick)
finalTick                                 35002733000                       # Number of ticks from beginning of simulation (restored from checkpoints and never reset) (Tick)
simFreq                                  1000000000000                       # The number of ticks per simulated second ((Tick/Second))
hostSeconds                                     34.27                       # Real time elapsed on the host (Second)
hostTickRate                               1021410894                       # The number of ticks simulated per host second (ticks/s) ((Tick/Second))
hostMemory                                     764372                       # Number of bytes of host memory used (Byte)
simInsts                                      9387386                       # Number of instructions simulated (Count)
simOps                                       13223863                       # Number of ops (including micro ops) simulated (Count)
hostInstRate                                   273930                       # Simulator instruction rate (inst/s) ((Count/Second))
hostOpRate                                     385880                       # Simulator op (including micro ops) rate (op/s) ((Count/Second))
system.clk_domain.clock                          1000                       # Clock period in ticks (Tick)
system.clk_domain.voltage_domain.voltage            1                       # Voltage in Volts (Volt)
system.cpu.numCycles                         35002733                       # Number of cpu cycles simulated (Cycle)
system.cpu.cpi                               3.728681                       # CPI: cycles per instruction (core level) ((Cycle/Count))
system.cpu.ipc                               0.268191                       # IPC: instructions per cycle (core level) ((Count/Cycle))
system.cpu.numWorkItemsStarted                      0                       # Number of work items this cpu started (Count)
system.cpu.numWorkItemsCompleted                    0                       # Number of work items this cpu completed (Count)
system.cpu.commitStats0.numInsts              9387431                       # Number of instructions committed (thread level) (Count)
system.cpu.commitStats0.numOps               13223910                       # Number of ops (including micro ops) committed (thread level) (Count)
system.cpu.commitStats0.numInstsNotNOP              0                       # Number of instructions committed excluding NOPs or prefetches (Count)
system.cpu.commitStats0.numOpsNotNOP                0                       # Number of Ops (including micro ops) Simulated (Count)
system.cpu.commitStats0.cpi                  3.728681                       # CPI: cycles per instruction (thread level) ((Cycle/Count))
system.cpu.commitStats0.ipc                  0.268191                       # IPC: instructions per cycle (thread level) ((Count/Cycle))
system.cpu.commitStats0.numMemRefs                  0                       # Number of memory references committed (Count)
system.cpu.commitStats0.numFpInsts            2490796                       # Number of float instructions (Count)
system.cpu.commitStats0.numIntInsts          11805620                       # Number of integer instructions (Count)
system.cpu.commitStats0.numLoadInsts          4144877                       # Number of load instructions (Count)
system.cpu.commitStats0.numStoreInsts          754653                       # Number of store instructions (Count)
system.cpu.commitStats0.numVecInsts                 0                       # Number of vector instructions (Count)
system.cpu.commitStats0.committedInstType::No_OpClass        37658      0.28%      0.28% # Class of committed instruction. (Count)
system.cpu.commitStats0.committedInstType::IntAlu      6910219     52.26%     52.54% # Class of committed instruction. (Count)
system.cpu.commitStats0.committedInstType::IntMult        12293      0.09%     52.63% # Class of committed instruction. (Count)
system.cpu.commitStats0.committedInstType::IntDiv           42      0.00%     52.63% # Class of committed instruction. (Count)
system.cpu.commitStats0.committedInstType::FloatAdd       815107      6.16%     58.80% # Class of committed instruction. (Count)
system.cpu.commitStats0.committedInstType::FloatCmp            0      0.00%     58.80% # Class of committed instruction. (Count)
system.cpu.commitStats0.committedInstType::FloatCvt            0      0.00%     58.80% # Class of committed instruction. (Count)
system.cpu.commitStats0.committedInstType::FloatMult            0      0.00%     58.80% # Class of committed instruction. (Count)
system.cpu.commitStats0.committedInstType::FloatMultAcc            0      0.00%     58.80% # Class of committed instruction. (Count)
system.cpu.commitStats0.committedInstType::FloatDiv            0      0.00%     58.80% # Class of committed instruction. (Count)
system.cpu.commitStats0.committedInstType::FloatMisc            0      0.00%     58.80% # Class of committed instruction. (Count)
system.cpu.commitStats0.committedInstType::FloatSqrt            0      0.00%     58.80% # Class of committed instruction. (Count)
system.cpu.commitStats0.committedInstType::SimdAdd            0      0.00%     58.80% # Class of committed instruction. (Count)
system.cpu.commitStats0.committedInstType::SimdAddAcc            0      0.00%     58.80% # Class of committed instruction. (Count)
system.cpu.commitStats0.committedInstType::SimdAlu         8270      0.06%     58.86% # Class of committed instruction. (Count)
system.cpu.commitStats0.committedInstType::SimdCmp            0      0.00%     58.86% # Class of committed instruction. (Count)
system.cpu.commitStats0.committedInstType::SimdCvt           50      0.00%     58.86% # Class of committed instruction. (Count)
system.cpu.commitStats0.committedInstType::SimdMisc           69      0.00%     58.86% # Class of committed instruction. (Count)
system.cpu.commitStats0.committedInstType::SimdMult            0      0.00%     58.86% # Class of committed instruction. (Count)
system.cpu.commitStats0.committedInstType::SimdMultAcc            0      0.00%     58.86% # Class of committed instruction. (Count)
system.cpu.commitStats0.committedInstType::SimdMatMultAcc            0      0.00%     58.86% # Class of committed instruction. (Count)
system.cpu.commitStats0.committedInstType::SimdShift            0      0.00%     58.86% # Class of committed instruction. (Count)
system.cpu.commitStats0.committedInstType::SimdShiftAcc            0      0.00%     58.86% # Class of committed instruction. (Count)
system.cpu.commitStats0.committedInstType::SimdDiv            0      0.00%     58.86% # Class of committed instruction. (Count)
system.cpu.commitStats0.committedInstType::SimdSqrt            0      0.00%     58.86% # Class of committed instruction. (Count)
system.cpu.commitStats0.committedInstType::SimdFloatAdd       270336      2.04%     60.91% # Class of committed instruction. (Count)
system.cpu.commitStats0.committedInstType::SimdFloatAlu            0      0.00%     60.91% # Class of committed instruction. (Count)
system.cpu.commitStats0.committedInstType::SimdFloatCmp            0      0.00%     60.91% # Class of committed instruction. (Count)
system.cpu.commitStats0.committedInstType::SimdFloatCvt            0      0.00%     60.91% # Class of committed instruction. (Count)
system.cpu.commitStats0.committedInstType::SimdFloatDiv            0      0.00%     60.91% # Class of committed instruction. (Count)
system.cpu.commitStats0.committedInstType::SimdFloatMisc            0      0.00%     60.91% # Class of committed instruction. (Count)
system.cpu.commitStats0.committedInstType::SimdFloatMult       270336      2.04%     62.95% # Class of committed instruction. (Count)
system.cpu.commitStats0.committedInstType::SimdFloatMultAcc            0      0.00%     62.95% # Class of committed instruction. (Count)
system.cpu.commitStats0.committedInstType::SimdFloatMatMultAcc            0      0.00%     62.95% # Class of committed instruction. (Count)
system.cpu.commitStats0.committedInstType::SimdFloatSqrt            0      0.00%     62.95% # Class of committed instruction. (Count)
system.cpu.commitStats0.committedInstType::SimdReduceAdd            0      0.00%     62.95% # Class of committed instruction. (Count)
system.cpu.commitStats0.committedInstType::SimdReduceAlu            0      0.00%     62.95% # Class of committed instruction. (Count)
system.cpu.commitStats0.committedInstType::SimdReduceCmp            0      0.00%     62.95% # Class of committed instruction. (Count)
system.cpu.commitStats0.committedInstType::SimdFloatReduceAdd            0      0.00%     62.95% # Class of committed instruction. (Count)
system.cpu.commitStats0.committedInstType::SimdFloatReduceCmp            0      0.00%     62.95% # Class of committed instruction. (Count)
system.cpu.commitStats0.committedInstType::SimdAes            0      0.00%     62.95% # Class of committed instruction. (Count)
system.cpu.commitStats0.committedInstType::SimdAesMix            0      0.00%     62.95% # Class of committed instruction. (Count)
system.cpu.commitStats0.committedInstType::SimdSha1Hash            0      0.00%     62.95% # Class of committed instruction. (Count)
system.cpu.commitStats0.committedInstType::SimdSha1Hash2            0      0.00%     62.95% # Class of committed instruction. (Count)
system.cpu.commitStats0.committedInstType::SimdSha256Hash            0      0.00%     62.95% # Class of committed instruction. (Count)
system.cpu.commitStats0.committedInstType::SimdSha256Hash2            0      0.00%     62.95% # Class of committed instruction. (Count)
system.cpu.commitStats0.committedInstType::SimdShaSigma2            0      0.00%     62.95% # Class of committed instruction. (Count)
system.cpu.commitStats0.committedInstType::SimdShaSigma3            0      0.00%     62.95% # Class of committed instruction. (Count)
system.cpu.commitStats0.committedInstType::SimdPredAlu            0      0.00%     62.95% # Class of committed instruction. (Count)
system.cpu.commitStats0.committedInstType::Matrix            0      0.00%     62.95% # Class of committed instruction. (Count)
system.cpu.commitStats0.committedInstType::MatrixMov            0      0.00%     62.95% # Class of committed instruction. (Count)
system.cpu.commitStats0.committedInstType::MatrixOP            0      0.00%     62.95% # Class of committed instruction. (Count)
system.cpu.commitStats0.committedInstType::MemRead      3321529     25.12%     88.07% # Class of committed instruction. (Count)
system.cpu.commitStats0.committedInstType::MemWrite       467768      3.54%     91.60% # Class of committed instruction. (Count)
system.cpu.commitStats0.committedInstType::FloatMemRead       823348      6.23%     97.83% # Class of committed instruction. (Count)
system.cpu.commitStats0.committedInstType::FloatMemWrite       286885      2.17%    100.00% # Class of committed instruction. (Count)
system.cpu.commitStats0.committedInstType::IprAccess            0      0.00%    100.00% # Class of committed instruction. (Count)
system.cpu.commitStats0.committedInstType::InstPrefetch            0      0.00%    100.00% # Class of committed instruction. (Count)
system.cpu.commitStats0.committedInstType::VectorUnitStrideLoad            0      0.00%    100.00% # Class of committed instruction. (Count)
system.cpu.commitStats0.committedInstType::VectorUnitStrideStore            0      0.00%    100.00% # Class of committed instruction. (Count)
system.cpu.commitStats0.committedInstType::VectorUnitStrideMaskLoad            0      0.00%    100.00% # Class of committed instruction. (Count)
system.cpu.commitStats0.committedInstType::VectorUnitStrideMaskStore            0      0.00%    100.00% # Class of committed instruction. (Count)
system.cpu.commitStats0.committedInstType::VectorStridedLoad            0      0.00%    100.00% # Class of committed instruction. (Count)
system.cpu.commitStats0.committedInstType::VectorStridedStore            0      0.00%    100.00% # Class of committed instruction. (Count)
system.cpu.commitStats0.committedInstType::VectorIndexedLoad            0      0.00%    100.00% # Class of committed instruction. (Count)
system.cpu.commitStats0.committedInstType::VectorIndexedStore            0      0.00%    100.00% # Class of committed instruction. (Count)
system.cpu.commitStats0.committedInstType::VectorUnitStrideFaultOnlyFirstLoad            0      0.00%    100.00% # Class of committed instruction. (Count)
system.cpu.commitStats0.committedInstType::VectorWholeRegisterLoad            0      0.00%    100.00% # Class of committed instruction. (Count)
system.cpu.commitStats0.committedInstType::VectorWholeRegisterStore            0      0.00%    100.00% # Class of committed instruction. (Count)
system.cpu.commitStats0.committedInstType::VectorIntegerArith            0      0.00%    100.00% # Class of committed instruction. (Count)
system.cpu.commitStats0.committedInstType::VectorFloatArith            0      0.00%    100.00% # Class of committed instruction. (Count)
system.cpu.commitStats0.committedInstType::VectorFloatConvert            0      0.00%    100.00% # Class of committed instruction. (Count)
system.cpu.commitStats0.committedInstType::VectorIntegerReduce            0      0.00%    100.00% # Class of committed instruction. (Count)
system.cpu.commitStats0.committedInstType::VectorFloatReduce            0      0.00%    100.00% # Class of committed instruction. (Count)
system.cpu.commitStats0.committedInstType::VectorMisc            0      0.00%    100.00% # Class of committed instruction. (Count)
system.cpu.commitStats0.committedInstType::VectorIntegerExtension            0      0.00%    100.00% # Class of committed instruction. (Count)
system.cpu.commitStats0.committedInstType::VectorConfig            0      0.00%    100.00% # Class of committed instruction. (Count)
system.cpu.commitStats0.committedInstType::total     13223910                       # Class of committed instruction. (Count)
system.cpu.commitStats0.committedControl::IsControl       493568                       # Class of control type instructions committed (Count)
system.cpu.commitStats0.committedControl::IsDirectControl       447494                       # Class of control type instructions committed (Count)
system.cpu.commitStats0.committedControl::IsIndirectControl        46074                       # Class of control type instructions committed (Count)
system.cpu.commitStats0.committedControl::IsCondControl       404464                       # Class of control type instructions committed (Count)
system.cpu.commitStats0.committedControl::IsUncondControl        89104                       # Class of control type instructions committed (Count)
system.cpu.commitStats0.committedControl::IsCall        37812                       # Class of control type instructions committed (Count)
system.cpu.commitStats0.committedControl::IsReturn        37808                       # Class of control type instructions committed (Count)
system.cpu.dcache.demandHits::cpu.data        4859575                       # number of demand (read+write) hits (Count)
system.cpu.dcache.demandHits::total           4859575                       # number of demand (read+write) hits (Count)
system.cpu.dcache.overallHits::cpu.data       4859575                       # number of overall hits (Count)
system.cpu.dcache.overallHits::total          4859575                       # number of overall hits (Count)
system.cpu.dcache.demandMisses::cpu.data        39928                       # number of demand (read+write) misses (Count)
system.cpu.dcache.demandMisses::total           39928                       # number of demand (read+write) misses (Count)
system.cpu.dcache.overallMisses::cpu.data        39928                       # number of overall misses (Count)
system.cpu.dcache.overallMisses::total          39928                       # number of overall misses (Count)
system.cpu.dcache.demandMissLatency::cpu.data    784269000                       # number of demand (read+write) miss ticks (Tick)
system.cpu.dcache.demandMissLatency::total    784269000                       # number of demand (read+write) miss ticks (Tick)
system.cpu.dcache.overallMissLatency::cpu.data    784269000                       # number of overall miss ticks (Tick)
system.cpu.dcache.overallMissLatency::total    784269000                       # number of overall miss ticks (Tick)
system.cpu.dcache.demandAccesses::cpu.data      4899503                       # number of demand (read+write) accesses (Count)
system.cpu.dcache.demandAccesses::total       4899503                       # number of demand (read+write) accesses (Count)
system.cpu.dcache.overallAccesses::cpu.data      4899503                       # number of overall (read+write) accesses (Count)
system.cpu.dcache.overallAccesses::total      4899503                       # number of overall (read+write) accesses (Count)
system.cpu.dcache.demandMissRate::cpu.data     0.008149                       # miss rate for demand accesses (Ratio)
system.cpu.dcache.demandMissRate::total      0.008149                       # miss rate for demand accesses (Ratio)
system.cpu.dcache.overallMissRate::cpu.data     0.008149                       # miss rate for overall accesses (Ratio)
system.cpu.dcache.overallMissRate::total     0.008149                       # miss rate for overall accesses (Ratio)
system.cpu.dcache.demandAvgMissLatency::cpu.data 19642.080745                       # average overall miss latency in ticks ((Tick/Count))
system.cpu.dcache.demandAvgMissLatency::total 19642.080745                       # average overall miss latency in ticks ((Tick/Count))
system.cpu.dcache.overallAvgMissLatency::cpu.data 19642.080745                       # average overall miss latency ((Tick/Count))
system.cpu.dcache.overallAvgMissLatency::total 19642.080745                       # average overall miss latency ((Tick/Count))
system.cpu.dcache.blockedCycles::no_mshrs            0                       # number of cycles access was blocked (Cycle)
system.cpu.dcache.blockedCycles::no_targets            0                       # number of cycles access was blocked (Cycle)
system.cpu.dcache.blockedCauses::no_mshrs            0                       # number of times access was blocked (Count)
system.cpu.dcache.blockedCauses::no_targets            0                       # number of times access was blocked (Count)
system.cpu.dcache.avgBlocked::no_mshrs            nan                       # average number of cycles each access was blocked ((Cycle/Count))
system.cpu.dcache.avgBlocked::no_targets          nan                       # average number of cycles each access was blocked ((Cycle/Count))
system.cpu.dcache.writebacks::writebacks        38592                       # number of writebacks (Count)
system.cpu.dcache.writebacks::total             38592                       # number of writebacks (Count)
system.cpu.dcache.demandMshrMisses::cpu.data        39928                       # number of demand (read+write) MSHR misses (Count)
system.cpu.dcache.demandMshrMisses::total        39928                       # number of demand (read+write) MSHR misses (Count)
system.cpu.dcache.overallMshrMisses::cpu.data        39928                       # number of overall MSHR misses (Count)
system.cpu.dcache.overallMshrMisses::total        39928                       # number of overall MSHR misses (Count)
system.cpu.dcache.demandMshrMissLatency::cpu.data    704413000                       # number of demand (read+write) MSHR miss ticks (Tick)
system.cpu.dcache.demandMshrMissLatency::total    704413000                       # number of demand (read+write) MSHR miss ticks (Tick)
system.cpu.dcache.overallMshrMissLatency::cpu.data    704413000                       # number of overall MSHR miss ticks (Tick)
system.cpu.dcache.overallMshrMissLatency::total    704413000                       # number of overall MSHR miss ticks (Tick)
system.cpu.dcache.demandMshrMissRate::cpu.data     0.008149                       # mshr miss ratio for demand accesses (Ratio)
system.cpu.dcache.demandMshrMissRate::total     0.008149                       # mshr miss ratio for demand accesses (Ratio)
system.cpu.dcache.overallMshrMissRate::cpu.data     0.008149                       # mshr miss ratio for overall accesses (Ratio)
system.cpu.dcache.overallMshrMissRate::total     0.008149                       # mshr miss ratio for overall accesses (Ratio)
system.cpu.dcache.demandAvgMshrMissLatency::cpu.data 17642.080745                       # average overall mshr miss latency ((Tick/Count))
system.cpu.dcache.demandAvgMshrMissLatency::total 17642.080745                       # average overall mshr miss latency ((Tick/Count))
system.cpu.dcache.overallAvgMshrMissLatency::cpu.data 17642.080745                       # average overall mshr miss latency ((Tick/Count))
system.cpu.dcache.overallAvgMshrMissLatency::total 17642.080745                       # average overall mshr miss latency ((Tick/Count))
system.cpu.dcache.replacements                  39800                       # number of replacements (Count)
system.cpu.dcache.ReadReq.hits::cpu.data      4107493                       # number of ReadReq hits (Count)
system.cpu.dcache.ReadReq.hits::total         4107493                       # number of ReadReq hits (Count)
system.cpu.dcache.ReadReq.misses::cpu.data        37385                       # number of ReadReq misses (Count)
system.cpu.dcache.ReadReq.misses::total         37385                       # number of ReadReq misses (Count)
system.cpu.dcache.ReadReq.missLatency::cpu.data    612289000                       # number of ReadReq miss ticks (Tick)
system.cpu.dcache.ReadReq.missLatency::total    612289000                       # number of ReadReq miss ticks (Tick)
system.cpu.dcache.ReadReq.accesses::cpu.data      4144878                       # number of ReadReq accesses(hits+misses) (Count)
system.cpu.dcache.ReadReq.accesses::total      4144878                       # number of ReadReq accesses(hits+misses) (Count)
system.cpu.dcache.ReadReq.missRate::cpu.data     0.009020                       # miss rate for ReadReq accesses (Ratio)
system.cpu.dcache.ReadReq.missRate::total     0.009020                       # miss rate for ReadReq accesses (Ratio)
system.cpu.dcache.ReadReq.avgMissLatency::cpu.data 16377.932326                       # average ReadReq miss latency ((Tick/Count))
system.cpu.dcache.ReadReq.avgMissLatency::total 16377.932326                       # average ReadReq miss latency ((Tick/Count))
system.cpu.dcache.ReadReq.mshrMisses::cpu.data        37385                       # number of ReadReq MSHR misses (Count)
system.cpu.dcache.ReadReq.mshrMisses::total        37385                       # number of ReadReq MSHR misses (Count)
system.cpu.dcache.ReadReq.mshrMissLatency::cpu.data    537519000                       # number of ReadReq MSHR miss ticks (Tick)
system.cpu.dcache.ReadReq.mshrMissLatency::total    537519000                       # number of ReadReq MSHR miss ticks (Tick)
system.cpu.dcache.ReadReq.mshrMissRate::cpu.data     0.009020                       # mshr miss rate for ReadReq accesses (Ratio)
system.cpu.dcache.ReadReq.mshrMissRate::total     0.009020                       # mshr miss rate for ReadReq accesses (Ratio)
system.cpu.dcache.ReadReq.avgMshrMissLatency::cpu.data 14377.932326                       # average ReadReq mshr miss latency ((Tick/Count))
system.cpu.dcache.ReadReq.avgMshrMissLatency::total 14377.932326                       # average ReadReq mshr miss latency ((Tick/Count))
system.cpu.dcache.WriteReq.hits::cpu.data       752082                       # number of WriteReq hits (Count)
system.cpu.dcache.WriteReq.hits::total         752082                       # number of WriteReq hits (Count)
system.cpu.dcache.WriteReq.misses::cpu.data         2543                       # number of WriteReq misses (Count)
system.cpu.dcache.WriteReq.misses::total         2543                       # number of WriteReq misses (Count)
system.cpu.dcache.WriteReq.missLatency::cpu.data    171980000                       # number of WriteReq miss ticks (Tick)
system.cpu.dcache.WriteReq.missLatency::total    171980000                       # number of WriteReq miss ticks (Tick)
system.cpu.dcache.WriteReq.accesses::cpu.data       754625                       # number of WriteReq accesses(hits+misses) (Count)
system.cpu.dcache.WriteReq.accesses::total       754625                       # number of WriteReq accesses(hits+misses) (Count)
system.cpu.dcache.WriteReq.missRate::cpu.data     0.003370                       # miss rate for WriteReq accesses (Ratio)
system.cpu.dcache.WriteReq.missRate::total     0.003370                       # miss rate for WriteReq accesses (Ratio)
system.cpu.dcache.WriteReq.avgMissLatency::cpu.data 67628.784900                       # average WriteReq miss latency ((Tick/Count))
system.cpu.dcache.WriteReq.avgMissLatency::total 67628.784900                       # average WriteReq miss latency ((Tick/Count))
system.cpu.dcache.WriteReq.mshrMisses::cpu.data         2543                       # number of WriteReq MSHR misses (Count)
system.cpu.dcache.WriteReq.mshrMisses::total         2543                       # number of WriteReq MSHR misses (Count)
system.cpu.dcache.WriteReq.mshrMissLatency::cpu.data    166894000                       # number of WriteReq MSHR miss ticks (Tick)
system.cpu.dcache.WriteReq.mshrMissLatency::total    166894000                       # number of WriteReq MSHR miss ticks (Tick)
system.cpu.dcache.WriteReq.mshrMissRate::cpu.data     0.003370                       # mshr miss rate for WriteReq accesses (Ratio)
system.cpu.dcache.WriteReq.mshrMissRate::total     0.003370                       # mshr miss rate for WriteReq accesses (Ratio)
system.cpu.dcache.WriteReq.avgMshrMissLatency::cpu.data 65628.784900                       # average WriteReq mshr miss latency ((Tick/Count))
system.cpu.dcache.WriteReq.avgMshrMissLatency::total 65628.784900                       # average WriteReq mshr miss latency ((Tick/Count))
system.cpu.dcache.power_state.pwrStateResidencyTicks::UNDEFINED  35002733000                       # Cumulative time (in ticks) in various power states (Tick)
system.cpu.dcache.tags.tagsInUse           127.938766                       # Average ticks per tags in use ((Tick/Count))
system.cpu.dcache.tags.totalRefs              4899503                       # Total number of references to valid blocks. (Count)
system.cpu.dcache.tags.sampledRefs              39928                       # Sample count of references to valid blocks. (Count)
system.cpu.dcache.tags.avgRefs             122.708450                       # Average number of references to valid blocks. ((Count/Count))
system.cpu.dcache.tags.warmupTick              179000                       # The tick when the warmup percentage was hit. (Tick)
system.cpu.dcache.tags.occupancies::cpu.data   127.938766                       # Average occupied blocks per tick, per requestor ((Count/Tick))
system.cpu.dcache.tags.avgOccs::cpu.data     0.999522                       # Average percentage of cache occupancy ((Ratio/Tick))
system.cpu.dcache.tags.avgOccs::total        0.999522                       # Average percentage of cache occupancy ((Ratio/Tick))
system.cpu.dcache.tags.occupanciesTaskId::1024          128                       # Occupied blocks per task id (Count)
system.cpu.dcache.tags.ageTaskId_1024::0           27                       # Occupied blocks per task id, per block age (Count)
system.cpu.dcache.tags.ageTaskId_1024::1           82                       # Occupied blocks per task id, per block age (Count)
system.cpu.dcache.tags.ageTaskId_1024::2           12                       # Occupied blocks per task id, per block age (Count)
system.cpu.dcache.tags.ageTaskId_1024::3            5                       # Occupied blocks per task id, per block age (Count)
system.cpu.dcache.tags.ageTaskId_1024::4            2                       # Occupied blocks per task id, per block age (Count)
system.cpu.dcache.tags.ratioOccsTaskId::1024            1                       # Ratio of occupied blocks and all blocks, per task id (Ratio)
system.cpu.dcache.tags.tagAccesses          627176312                       # Number of tag accesses (Count)
system.cpu.dcache.tags.dataAccesses         627176312                       # Number of data accesses (Count)
system.cpu.dcache.tags.power_state.pwrStateResidencyTicks::UNDEFINED  35002733000                       # Cumulative time (in ticks) in various power states (Tick)
system.cpu.exec_context.thread_0.numMatAluAccesses            0                       # Number of matrix alu accesses (Count)
system.cpu.exec_context.thread_0.numCallsReturns        75620                       # Number of times a function call or return occured (Count)
system.cpu.exec_context.thread_0.numMatInsts            0                       # Number of matrix instructions (Count)
system.cpu.exec_context.thread_0.numIdleCycles     0.001000                       # Number of idle cycles (Cycle)
system.cpu.exec_context.thread_0.numBusyCycles 35002732.999000                       # Number of busy cycles (Cycle)
system.cpu.exec_context.thread_0.notIdleFraction     1.000000                       # Percentage of non-idle cycles (Ratio)
system.cpu.exec_context.thread_0.idleFraction     0.000000                       # Percentage of idle cycles (Ratio)
system.cpu.executeStats0.numInsts                   0                       # Number of executed instructions (Count)
system.cpu.executeStats0.numNop                     0                       # Number of nop insts executed (Count)
system.cpu.executeStats0.numBranches                0                       # Number of branches executed (Count)
system.cpu.executeStats0.numLoadInsts               0                       # Number of load instructions executed (Count)
system.cpu.executeStats0.numStoreInsts        4899530                       # Number of stores executed (Count)
system.cpu.executeStats0.instRate                   0                       # Inst execution rate ((Count/Cycle))
system.cpu.executeStats0.numFpAluAccesses      2490796                       # Number of float alu accesses (Count)
system.cpu.executeStats0.numFpRegReads        1958474                       # Number of times the floating registers were read (Count)
system.cpu.executeStats0.numFpRegWrites       2203863                       # Number of times the floating registers were written (Count)
system.cpu.executeStats0.numIntAluAccesses     11805620                       # Number of integer alu accesses (Count)
system.cpu.executeStats0.numIntRegReads      15377102                       # Number of times the integer registers were read (Count)
system.cpu.executeStats0.numIntRegWrites      9345259                       # Number of times the integer registers were written (Count)
system.cpu.executeStats0.numMemRefs           4899530                       # Number of memory refs (Count)
system.cpu.executeStats0.numMiscRegReads      6160844                       # Number of times the Misc registers were read (Count)
system.cpu.executeStats0.numVecAluAccesses            0                       # Number of vector alu accesses (Count)
system.cpu.executeStats0.numDiscardedOps            0                       # Number of ops (including micro ops) which were discarded before commit (Count)
system.cpu.fetchStats0.numInsts               9387431                       # Number of instructions fetched (thread level) (Count)
system.cpu.fetchStats0.numOps                13223910                       # Number of ops (including micro ops) fetched (thread level) (Count)
system.cpu.fetchStats0.fetchRate             0.268191                       # Number of inst fetches per cycle ((Count/Cycle))
system.cpu.fetchStats0.numBranches             493568                       # Number of branches fetched (Count)
system.cpu.fetchStats0.branchRate            0.014101                       # Number of branch fetches per cycle (Ratio)
system.cpu.fetchStats0.numFetchSuspends             0                       # Number of times Execute suspended instruction fetching (Count)
system.cpu.icache.demandHits::cpu.inst       12227601                       # number of demand (read+write) hits (Count)
system.cpu.icache.demandHits::total          12227601                       # number of demand (read+write) hits (Count)
system.cpu.icache.overallHits::cpu.inst      12227601                       # number of overall hits (Count)
system.cpu.icache.overallHits::total         12227601                       # number of overall hits (Count)
system.cpu.icache.demandMisses::cpu.inst          571                       # number of demand (read+write) misses (Count)
system.cpu.icache.demandMisses::total             571                       # number of demand (read+write) misses (Count)
system.cpu.icache.overallMisses::cpu.inst          571                       # number of overall misses (Count)
system.cpu.icache.overallMisses::total            571                       # number of overall misses (Count)
system.cpu.icache.demandMissLatency::cpu.inst     44117000                       # number of demand (read+write) miss ticks (Tick)
system.cpu.icache.demandMissLatency::total     44117000                       # number of demand (read+write) miss ticks (Tick)
system.cpu.icache.overallMissLatency::cpu.inst     44117000                       # number of overall miss ticks (Tick)
system.cpu.icache.overallMissLatency::total     44117000                       # number of overall miss ticks (Tick)
system.cpu.icache.demandAccesses::cpu.inst     12228172                       # number of demand (read+write) accesses (Count)
system.cpu.icache.demandAccesses::total      12228172                       # number of demand (read+write) accesses (Count)
system.cpu.icache.overallAccesses::cpu.inst     12228172                       # number of overall (read+write) accesses (Count)
system.cpu.icache.overallAccesses::total     12228172                       # number of overall (read+write) accesses (Count)
system.cpu.icache.demandMissRate::cpu.inst     0.000047                       # miss rate for demand accesses (Ratio)
system.cpu.icache.demandMissRate::total      0.000047                       # miss rate for demand accesses (Ratio)
system.cpu.icache.overallMissRate::cpu.inst     0.000047                       # miss rate for overall accesses (Ratio)
system.cpu.icache.overallMissRate::total     0.000047                       # miss rate for overall accesses (Ratio)
system.cpu.icache.demandAvgMissLatency::cpu.inst 77262.697023                       # average overall miss latency in ticks ((Tick/Count))
system.cpu.icache.demandAvgMissLatency::total 77262.697023                       # average overall miss latency in ticks ((Tick/Count))
system.cpu.icache.overallAvgMissLatency::cpu.inst 77262.697023                       # average overall miss latency ((Tick/Count))
system.cpu.icache.overallAvgMissLatency::total 77262.697023                       # average overall miss latency ((Tick/Count))
system.cpu.icache.blockedCycles::no_mshrs            0                       # number of cycles access was blocked (Cycle)
system.cpu.icache.blockedCycles::no_targets            0                       # number of cycles access was blocked (Cycle)
system.cpu.icache.blockedCauses::no_mshrs            0                       # number of times access was blocked (Count)
system.cpu.icache.blockedCauses::no_targets            0                       # number of times access was blocked (Count)
system.cpu.icache.avgBlocked::no_mshrs            nan                       # average number of cycles each access was blocked ((Cycle/Count))
system.cpu.icache.avgBlocked::no_targets          nan                       # average number of cycles each access was blocked ((Cycle/Count))
system.cpu.icache.writebacks::writebacks          443                       # number of writebacks (Count)
system.cpu.icache.writebacks::total               443                       # number of writebacks (Count)
system.cpu.icache.demandMshrMisses::cpu.inst          571                       # number of demand (read+write) MSHR misses (Count)
system.cpu.icache.demandMshrMisses::total          571                       # number of demand (read+write) MSHR misses (Count)
system.cpu.icache.overallMshrMisses::cpu.inst          571                       # number of overall MSHR misses (Count)
system.cpu.icache.overallMshrMisses::total          571                       # number of overall MSHR misses (Count)
system.cpu.icache.demandMshrMissLatency::cpu.inst     42975000                       # number of demand (read+write) MSHR miss ticks (Tick)
system.cpu.icache.demandMshrMissLatency::total     42975000                       # number of demand (read+write) MSHR miss ticks (Tick)
system.cpu.icache.overallMshrMissLatency::cpu.inst     42975000                       # number of overall MSHR miss ticks (Tick)
system.cpu.icache.overallMshrMissLatency::total     42975000                       # number of overall MSHR miss ticks (Tick)
system.cpu.icache.demandMshrMissRate::cpu.inst     0.000047                       # mshr miss ratio for demand accesses (Ratio)
system.cpu.icache.demandMshrMissRate::total     0.000047                       # mshr miss ratio for demand accesses (Ratio)
system.cpu.icache.overallMshrMissRate::cpu.inst     0.000047                       # mshr miss ratio for overall accesses (Ratio)
system.cpu.icache.overallMshrMissRate::total     0.000047                       # mshr miss ratio for overall accesses (Ratio)
system.cpu.icache.demandAvgMshrMissLatency::cpu.inst 75262.697023                       # average overall mshr miss latency ((Tick/Count))
system.cpu.icache.demandAvgMshrMissLatency::total 75262.697023                       # average overall mshr miss latency ((Tick/Count))
system.cpu.icache.overallAvgMshrMissLatency::cpu.inst 75262.697023                       # average overall mshr miss latency ((Tick/Count))
system.cpu.icache.overallAvgMshrMissLatency::total 75262.697023                       # average overall mshr miss latency ((Tick/Count))
system.cpu.icache.replacements                    443                       # number of replacements (Count)
system.cpu.icache.ReadReq.hits::cpu.inst     12227601                       # number of ReadReq hits (Count)
system.cpu.icache.ReadReq.hits::total        12227601                       # number of ReadReq hits (Count)
system.cpu.icache.ReadReq.misses::cpu.inst          571                       # number of ReadReq misses (Count)
system.cpu.icache.ReadReq.misses::total           571                       # number of ReadReq misses (Count)
system.cpu.icache.ReadReq.missLatency::cpu.inst     44117000                       # number of ReadReq miss ticks (Tick)
system.cpu.icache.ReadReq.missLatency::total     44117000                       # number of ReadReq miss ticks (Tick)
system.cpu.icache.ReadReq.accesses::cpu.inst     12228172                       # number of ReadReq accesses(hits+misses) (Count)
system.cpu.icache.ReadReq.accesses::total     12228172                       # number of ReadReq accesses(hits+misses) (Count)
system.cpu.icache.ReadReq.missRate::cpu.inst     0.000047                       # miss rate for ReadReq accesses (Ratio)
system.cpu.icache.ReadReq.missRate::total     0.000047                       # miss rate for ReadReq accesses (Ratio)
system.cpu.icache.ReadReq.avgMissLatency::cpu.inst 77262.697023                       # average ReadReq miss latency ((Tick/Count))
system.cpu.icache.ReadReq.avgMissLatency::total 77262.697023                       # average ReadReq miss latency ((Tick/Count))
system.cpu.icache.ReadReq.mshrMisses::cpu.inst          571                       # number of ReadReq MSHR misses (Count)
system.cpu.icache.ReadReq.mshrMisses::total          571                       # number of ReadReq MSHR misses (Count)
system.cpu.icache.ReadReq.mshrMissLatency::cpu.inst     42975000                       # number of ReadReq MSHR miss ticks (Tick)
system.cpu.icache.ReadReq.mshrMissLatency::total     42975000                       # number of ReadReq MSHR miss ticks (Tick)
system.cpu.icache.ReadReq.mshrMissRate::cpu.inst     0.000047                       # mshr miss rate for ReadReq accesses (Ratio)
system.cpu.icache.ReadReq.mshrMissRate::total     0.000047                       # mshr miss rate for ReadReq accesses (Ratio)
system.cpu.icache.ReadReq.avgMshrMissLatency::cpu.inst 75262.697023                       # average ReadReq mshr miss latency ((Tick/Count))
system.cpu.icache.ReadReq.avgMshrMissLatency::total 75262.697023                       # average ReadReq mshr miss latency ((Tick/Count))
system.cpu.icache.power_state.pwrStateResidencyTicks::UNDEFINED  35002733000                       # Cumulative time (in ticks) in various power states (Tick)
system.cpu.icache.tags.tagsInUse           127.941158                       # Average ticks per tags in use ((Tick/Count))
system.cpu.icache.tags.totalRefs             12228172                       # Total number of references to valid blocks. (Count)
system.cpu.icache.tags.sampledRefs                571                       # Sample count of references to valid blocks. (Count)
system.cpu.icache.tags.avgRefs           21415.362522                       # Average number of references to valid blocks. ((Count/Count))
system.cpu.icache.tags.warmupTick               86000                       # The tick when the warmup percentage was hit. (Tick)
system.cpu.icache.tags.occupancies::cpu.inst   127.941158                       # Average occupied blocks per tick, per requestor ((Count/Tick))
system.cpu.icache.tags.avgOccs::cpu.inst     0.999540                       # Average percentage of cache occupancy ((Ratio/Tick))
system.cpu.icache.tags.avgOccs::total        0.999540                       # Average percentage of cache occupancy ((Ratio/Tick))
system.cpu.icache.tags.occupanciesTaskId::1024          128                       # Occupied blocks per task id (Count)
system.cpu.icache.tags.ageTaskId_1024::0           44                       # Occupied blocks per task id, per block age (Count)
system.cpu.icache.tags.ageTaskId_1024::1            3                       # Occupied blocks per task id, per block age (Count)
system.cpu.icache.tags.ageTaskId_1024::2           43                       # Occupied blocks per task id, per block age (Count)
system.cpu.icache.tags.ageTaskId_1024::3           23                       # Occupied blocks per task id, per block age (Count)
system.cpu.icache.tags.ageTaskId_1024::4           15                       # Occupied blocks per task id, per block age (Count)
system.cpu.icache.tags.ratioOccsTaskId::1024            1                       # Ratio of occupied blocks and all blocks, per task id (Ratio)
system.cpu.icache.tags.tagAccesses           48913259                       # Number of tag accesses (Count)
system.cpu.icache.tags.dataAccesses          48913259                       # Number of data accesses (Count)
system.cpu.icache.tags.power_state.pwrStateResidencyTicks::UNDEFINED  35002733000                       # Cumulative time (in ticks) in various power states (Tick)
system.cpu.interrupts.clk_domain.clock          16000                       # Clock period in ticks (Tick)
system.cpu.mmu.dtb.rdAccesses                 4144879                       # TLB accesses on read requests (Count)
system.cpu.mmu.dtb.wrAccesses                  754654                       # TLB accesses on write requests (Count)
system.cpu.mmu.dtb.rdMisses                        13                       # TLB misses on read requests (Count)
system.cpu.mmu.dtb.wrMisses                        62                       # TLB misses on write requests (Count)
system.cpu.mmu.dtb.walker.power_state.pwrStateResidencyTicks::UNDEFINED  35002733000                       # Cumulative time (in ticks) in various power states (Tick)
system.cpu.mmu.itb.rdAccesses                       0                       # TLB accesses on read requests (Count)
system.cpu.mmu.itb.wrAccesses                12228172                       # TLB accesses on write requests (Count)
system.cpu.mmu.itb.rdMisses                         0                       # TLB misses on read requests (Count)
system.cpu.mmu.itb.wrMisses                        47                       # TLB misses on write requests (Count)
system.cpu.mmu.itb.walker.power_state.pwrStateResidencyTicks::UNDEFINED  35002733000                       # Cumulative time (in ticks) in various power states (Tick)
system.cpu.power_state.pwrStateResidencyTicks::ON  35002733000                       # Cumulative time (in ticks) in various power states (Tick)
system.cpu.thread_0.numInsts                        0                       # Number of Instructions committed (Count)
system.cpu.thread_0.numOps                          0                       # Number of Ops committed (Count)
system.cpu.thread_0.numMemRefs                      0                       # Number of Memory References (Count)
system.cpu.workload.numSyscalls                    17                       # Number of system calls (Count)
system.l2bus.transDist::ReadResp                37956                       # Transaction distribution (Count)
system.l2bus.transDist::WritebackDirty          40371                       # Transaction distribution (Count)
system.l2bus.transDist::WritebackClean            443                       # Transaction distribution (Count)
system.l2bus.transDist::CleanEvict               2404                       # Transaction distribution (Count)
system.l2bus.transDist::ReadExReq                2543                       # Transaction distribution (Count)
system.l2bus.transDist::ReadExResp               2543                       # Transaction distribution (Count)
system.l2bus.transDist::ReadCleanReq              571                       # Transaction distribution (Count)
system.l2bus.transDist::ReadSharedReq           37385                       # Transaction distribution (Count)
system.l2bus.pktCount_system.cpu.icache.mem_side_port::system.l2cache.cpu_side_port         1585                       # Packet count per connected requestor and responder (Count)
system.l2bus.pktCount_system.cpu.dcache.mem_side_port::system.l2cache.cpu_side_port       119656                       # Packet count per connected requestor and responder (Count)
system.l2bus.pktCount::total                   121241                       # Packet count per connected requestor and responder (Count)
system.l2bus.pktSize_system.cpu.icache.mem_side_port::system.l2cache.cpu_side_port        64896                       # Cumulative packet size per connected requestor and responder (Byte)
system.l2bus.pktSize_system.cpu.dcache.mem_side_port::system.l2cache.cpu_side_port      5025280                       # Cumulative packet size per connected requestor and responder (Byte)
system.l2bus.pktSize::total                   5090176                       # Cumulative packet size per connected requestor and responder (Byte)
system.l2bus.snoops                              2975                       # Total snoops (Count)
system.l2bus.snoopTraffic                      113856                       # Total snoop traffic (Byte)
system.l2bus.snoopFanout::samples               43474                       # Request fanout histogram (Count)
system.l2bus.snoopFanout::mean               0.005475                       # Request fanout histogram (Count)
system.l2bus.snoopFanout::stdev              0.073788                       # Request fanout histogram (Count)
system.l2bus.snoopFanout::underflows                0      0.00%      0.00% # Request fanout histogram (Count)
system.l2bus.snoopFanout::0                     43236     99.45%     99.45% # Request fanout histogram (Count)
system.l2bus.snoopFanout::1                       238      0.55%    100.00% # Request fanout histogram (Count)
system.l2bus.snoopFanout::2                         0      0.00%    100.00% # Request fanout histogram (Count)
system.l2bus.snoopFanout::overflows                 0      0.00%    100.00% # Request fanout histogram (Count)
system.l2bus.snoopFanout::min_value                 0                       # Request fanout histogram (Count)
system.l2bus.snoopFanout::max_value                 1                       # Request fanout histogram (Count)
system.l2bus.snoopFanout::total                 43474                       # Request fanout histogram (Count)
system.l2bus.power_state.pwrStateResidencyTicks::UNDEFINED  35002733000                       # Cumulative time (in ticks) in various power states (Tick)
system.l2bus.reqLayer0.occupancy            158812000                       # Layer occupancy (ticks) (Tick)
system.l2bus.reqLayer0.utilization                0.0                       # Layer utilization (Ratio)
system.l2bus.respLayer0.occupancy             1713000                       # Layer occupancy (ticks) (Tick)
system.l2bus.respLayer0.utilization               0.0                       # Layer utilization (Ratio)
system.l2bus.respLayer1.occupancy           119784000                       # Layer occupancy (ticks) (Tick)
system.l2bus.respLayer1.utilization               0.0                       # Layer utilization (Ratio)
system.l2bus.snoop_filter.totRequests           80742                       # Total number of requests made to the snoop filter. (Count)
system.l2bus.snoop_filter.hitSingleRequests        40243                       # Number of requests hitting in the snoop filter with a single holder of the requested data. (Count)
system.l2bus.snoop_filter.hitMultiRequests            0                       # Number of requests hitting in the snoop filter with multiple (>1) holders of the requested data. (Count)
system.l2bus.snoop_filter.totSnoops               238                       # Total number of snoops made to the snoop filter. (Count)
system.l2bus.snoop_filter.hitSingleSnoops          238                       # Number of snoops hitting in the snoop filter with a single holder of the requested data. (Count)
system.l2bus.snoop_filter.hitMultiSnoops            0                       # Number of snoops hitting in the snoop filter with multiple (>1) holders of the requested data. (Count)
system.l2cache.demandHits::cpu.inst                37                       # number of demand (read+write) hits (Count)
system.l2cache.demandHits::cpu.data             36654                       # number of demand (read+write) hits (Count)
system.l2cache.demandHits::total                36691                       # number of demand (read+write) hits (Count)
system.l2cache.overallHits::cpu.inst               37                       # number of overall hits (Count)
system.l2cache.overallHits::cpu.data            36654                       # number of overall hits (Count)
system.l2cache.overallHits::total               36691                       # number of overall hits (Count)
system.l2cache.demandMisses::cpu.inst             534                       # number of demand (read+write) misses (Count)
system.l2cache.demandMisses::cpu.data            3274                       # number of demand (read+write) misses (Count)
system.l2cache.demandMisses::total               3808                       # number of demand (read+write) misses (Count)
system.l2cache.overallMisses::cpu.inst            534                       # number of overall misses (Count)
system.l2cache.overallMisses::cpu.data           3274                       # number of overall misses (Count)
system.l2cache.overallMisses::total              3808                       # number of overall misses (Count)
system.l2cache.demandMissLatency::cpu.inst     40918000                       # number of demand (read+write) miss ticks (Tick)
system.l2cache.demandMissLatency::cpu.data    254717000                       # number of demand (read+write) miss ticks (Tick)
system.l2cache.demandMissLatency::total     295635000                       # number of demand (read+write) miss ticks (Tick)
system.l2cache.overallMissLatency::cpu.inst     40918000                       # number of overall miss ticks (Tick)
system.l2cache.overallMissLatency::cpu.data    254717000                       # number of overall miss ticks (Tick)
system.l2cache.overallMissLatency::total    295635000                       # number of overall miss ticks (Tick)
system.l2cache.demandAccesses::cpu.inst           571                       # number of demand (read+write) accesses (Count)
system.l2cache.demandAccesses::cpu.data         39928                       # number of demand (read+write) accesses (Count)
system.l2cache.demandAccesses::total            40499                       # number of demand (read+write) accesses (Count)
system.l2cache.overallAccesses::cpu.inst          571                       # number of overall (read+write) accesses (Count)
system.l2cache.overallAccesses::cpu.data        39928                       # number of overall (read+write) accesses (Count)
system.l2cache.overallAccesses::total           40499                       # number of overall (read+write) accesses (Count)
system.l2cache.demandMissRate::cpu.inst      0.935201                       # miss rate for demand accesses (Ratio)
system.l2cache.demandMissRate::cpu.data      0.081998                       # miss rate for demand accesses (Ratio)
system.l2cache.demandMissRate::total         0.094027                       # miss rate for demand accesses (Ratio)
system.l2cache.overallMissRate::cpu.inst     0.935201                       # miss rate for overall accesses (Ratio)
system.l2cache.overallMissRate::cpu.data     0.081998                       # miss rate for overall accesses (Ratio)
system.l2cache.overallMissRate::total        0.094027                       # miss rate for overall accesses (Ratio)
system.l2cache.demandAvgMissLatency::cpu.inst 76625.468165                       # average overall miss latency in ticks ((Tick/Count))
system.l2cache.demandAvgMissLatency::cpu.data 77799.938913                       # average overall miss latency in ticks ((Tick/Count))
system.l2cache.demandAvgMissLatency::total 77635.241597                       # average overall miss latency in ticks ((Tick/Count))
system.l2cache.overallAvgMissLatency::cpu.inst 76625.468165                       # average overall miss latency ((Tick/Count))
system.l2cache.overallAvgMissLatency::cpu.data 77799.938913                       # average overall miss latency ((Tick/Count))
system.l2cache.overallAvgMissLatency::total 77635.241597                       # average overall miss latency ((Tick/Count))
system.l2cache.blockedCycles::no_mshrs              0                       # number of cycles access was blocked (Cycle)
system.l2cache.blockedCycles::no_targets            0                       # number of cycles access was blocked (Cycle)
system.l2cache.blockedCauses::no_mshrs              0                       # number of times access was blocked (Count)
system.l2cache.blockedCauses::no_targets            0                       # number of times access was blocked (Count)
system.l2cache.avgBlocked::no_mshrs               nan                       # average number of cycles each access was blocked ((Cycle/Count))
system.l2cache.avgBlocked::no_targets             nan                       # average number of cycles each access was blocked ((Cycle/Count))
system.l2cache.writebacks::writebacks            1779                       # number of writebacks (Count)
system.l2cache.writebacks::total                 1779                       # number of writebacks (Count)
system.l2cache.demandMshrMisses::cpu.inst          534                       # number of demand (read+write) MSHR misses (Count)
system.l2cache.demandMshrMisses::cpu.data         3274                       # number of demand (read+write) MSHR misses (Count)
system.l2cache.demandMshrMisses::total           3808                       # number of demand (read+write) MSHR misses (Count)
system.l2cache.overallMshrMisses::cpu.inst          534                       # number of overall MSHR misses (Count)
system.l2cache.overallMshrMisses::cpu.data         3274                       # number of overall MSHR misses (Count)
system.l2cache.overallMshrMisses::total          3808                       # number of overall MSHR misses (Count)
system.l2cache.demandMshrMissLatency::cpu.inst     36646000                       # number of demand (read+write) MSHR miss ticks (Tick)
system.l2cache.demandMshrMissLatency::cpu.data    228525000                       # number of demand (read+write) MSHR miss ticks (Tick)
system.l2cache.demandMshrMissLatency::total    265171000                       # number of demand (read+write) MSHR miss ticks (Tick)
system.l2cache.overallMshrMissLatency::cpu.inst     36646000                       # number of overall MSHR miss ticks (Tick)
system.l2cache.overallMshrMissLatency::cpu.data    228525000                       # number of overall MSHR miss ticks (Tick)
system.l2cache.overallMshrMissLatency::total    265171000                       # number of overall MSHR miss ticks (Tick)
system.l2cache.demandMshrMissRate::cpu.inst     0.935201                       # mshr miss ratio for demand accesses (Ratio)
system.l2cache.demandMshrMissRate::cpu.data     0.081998                       # mshr miss ratio for demand accesses (Ratio)
system.l2cache.demandMshrMissRate::total     0.094027                       # mshr miss ratio for demand accesses (Ratio)
system.l2cache.overallMshrMissRate::cpu.inst     0.935201                       # mshr miss ratio for overall accesses (Ratio)
system.l2cache.overallMshrMissRate::cpu.data     0.081998                       # mshr miss ratio for overall accesses (Ratio)
system.l2cache.overallMshrMissRate::total     0.094027                       # mshr miss ratio for overall accesses (Ratio)
system.l2cache.demandAvgMshrMissLatency::cpu.inst 68625.468165                       # average overall mshr miss latency ((Tick/Count))
system.l2cache.demandAvgMshrMissLatency::cpu.data 69799.938913                       # average overall mshr miss latency ((Tick/Count))
system.l2cache.demandAvgMshrMissLatency::total 69635.241597                       # average overall mshr miss latency ((Tick/Count))
system.l2cache.overallAvgMshrMissLatency::cpu.inst 68625.468165                       # average overall mshr miss latency ((Tick/Count))
system.l2cache.overallAvgMshrMissLatency::cpu.data 69799.938913                       # average overall mshr miss latency ((Tick/Count))
system.l2cache.overallAvgMshrMissLatency::total 69635.241597                       # average overall mshr miss latency ((Tick/Count))
system.l2cache.replacements                      2975                       # number of replacements (Count)
system.l2cache.CleanEvict.mshrMisses::writebacks            5                       # number of CleanEvict MSHR misses (Count)
system.l2cache.CleanEvict.mshrMisses::total            5                       # number of CleanEvict MSHR misses (Count)
system.l2cache.CleanEvict.mshrMissRate::writebacks          inf                       # mshr miss rate for CleanEvict accesses (Ratio)
system.l2cache.CleanEvict.mshrMissRate::total          inf                       # mshr miss rate for CleanEvict accesses (Ratio)
system.l2cache.ReadCleanReq.hits::cpu.inst           37                       # number of ReadCleanReq hits (Count)
system.l2cache.ReadCleanReq.hits::total            37                       # number of ReadCleanReq hits (Count)
system.l2cache.ReadCleanReq.misses::cpu.inst          534                       # number of ReadCleanReq misses (Count)
system.l2cache.ReadCleanReq.misses::total          534                       # number of ReadCleanReq misses (Count)
system.l2cache.ReadCleanReq.missLatency::cpu.inst     40918000                       # number of ReadCleanReq miss ticks (Tick)
system.l2cache.ReadCleanReq.missLatency::total     40918000                       # number of ReadCleanReq miss ticks (Tick)
system.l2cache.ReadCleanReq.accesses::cpu.inst          571                       # number of ReadCleanReq accesses(hits+misses) (Count)
system.l2cache.ReadCleanReq.accesses::total          571                       # number of ReadCleanReq accesses(hits+misses) (Count)
system.l2cache.ReadCleanReq.missRate::cpu.inst     0.935201                       # miss rate for ReadCleanReq accesses (Ratio)
system.l2cache.ReadCleanReq.missRate::total     0.935201                       # miss rate for ReadCleanReq accesses (Ratio)
system.l2cache.ReadCleanReq.avgMissLatency::cpu.inst 76625.468165                       # average ReadCleanReq miss latency ((Tick/Count))
system.l2cache.ReadCleanReq.avgMissLatency::total 76625.468165                       # average ReadCleanReq miss latency ((Tick/Count))
system.l2cache.ReadCleanReq.mshrMisses::cpu.inst          534                       # number of ReadCleanReq MSHR misses (Count)
system.l2cache.ReadCleanReq.mshrMisses::total          534                       # number of ReadCleanReq MSHR misses (Count)
system.l2cache.ReadCleanReq.mshrMissLatency::cpu.inst     36646000                       # number of ReadCleanReq MSHR miss ticks (Tick)
system.l2cache.ReadCleanReq.mshrMissLatency::total     36646000                       # number of ReadCleanReq MSHR miss ticks (Tick)
system.l2cache.ReadCleanReq.mshrMissRate::cpu.inst     0.935201                       # mshr miss rate for ReadCleanReq accesses (Ratio)
system.l2cache.ReadCleanReq.mshrMissRate::total     0.935201                       # mshr miss rate for ReadCleanReq accesses (Ratio)
system.l2cache.ReadCleanReq.avgMshrMissLatency::cpu.inst 68625.468165                       # average ReadCleanReq mshr miss latency ((Tick/Count))
system.l2cache.ReadCleanReq.avgMshrMissLatency::total 68625.468165                       # average ReadCleanReq mshr miss latency ((Tick/Count))
system.l2cache.ReadExReq.hits::cpu.data           595                       # number of ReadExReq hits (Count)
system.l2cache.ReadExReq.hits::total              595                       # number of ReadExReq hits (Count)
system.l2cache.ReadExReq.misses::cpu.data         1948                       # number of ReadExReq misses (Count)
system.l2cache.ReadExReq.misses::total           1948                       # number of ReadExReq misses (Count)
system.l2cache.ReadExReq.missLatency::cpu.data    153903000                       # number of ReadExReq miss ticks (Tick)
system.l2cache.ReadExReq.missLatency::total    153903000                       # number of ReadExReq miss ticks (Tick)
system.l2cache.ReadExReq.accesses::cpu.data         2543                       # number of ReadExReq accesses(hits+misses) (Count)
system.l2cache.ReadExReq.accesses::total         2543                       # number of ReadExReq accesses(hits+misses) (Count)
system.l2cache.ReadExReq.missRate::cpu.data     0.766024                       # miss rate for ReadExReq accesses (Ratio)
system.l2cache.ReadExReq.missRate::total     0.766024                       # miss rate for ReadExReq accesses (Ratio)
system.l2cache.ReadExReq.avgMissLatency::cpu.data 79005.646817                       # average ReadExReq miss latency ((Tick/Count))
system.l2cache.ReadExReq.avgMissLatency::total 79005.646817                       # average ReadExReq miss latency ((Tick/Count))
system.l2cache.ReadExReq.mshrMisses::cpu.data         1948                       # number of ReadExReq MSHR misses (Count)
system.l2cache.ReadExReq.mshrMisses::total         1948                       # number of ReadExReq MSHR misses (Count)
system.l2cache.ReadExReq.mshrMissLatency::cpu.data    138319000                       # number of ReadExReq MSHR miss ticks (Tick)
system.l2cache.ReadExReq.mshrMissLatency::total    138319000                       # number of ReadExReq MSHR miss ticks (Tick)
system.l2cache.ReadExReq.mshrMissRate::cpu.data     0.766024                       # mshr miss rate for ReadExReq accesses (Ratio)
system.l2cache.ReadExReq.mshrMissRate::total     0.766024                       # mshr miss rate for ReadExReq accesses (Ratio)
system.l2cache.ReadExReq.avgMshrMissLatency::cpu.data 71005.646817                       # average ReadExReq mshr miss latency ((Tick/Count))
system.l2cache.ReadExReq.avgMshrMissLatency::total 71005.646817                       # average ReadExReq mshr miss latency ((Tick/Count))
system.l2cache.ReadSharedReq.hits::cpu.data        36059                       # number of ReadSharedReq hits (Count)
system.l2cache.ReadSharedReq.hits::total        36059                       # number of ReadSharedReq hits (Count)
system.l2cache.ReadSharedReq.misses::cpu.data         1326                       # number of ReadSharedReq misses (Count)
system.l2cache.ReadSharedReq.misses::total         1326                       # number of ReadSharedReq misses (Count)
system.l2cache.ReadSharedReq.missLatency::cpu.data    100814000                       # number of ReadSharedReq miss ticks (Tick)
system.l2cache.ReadSharedReq.missLatency::total    100814000                       # number of ReadSharedReq miss ticks (Tick)
system.l2cache.ReadSharedReq.accesses::cpu.data        37385                       # number of ReadSharedReq accesses(hits+misses) (Count)
system.l2cache.ReadSharedReq.accesses::total        37385                       # number of ReadSharedReq accesses(hits+misses) (Count)
system.l2cache.ReadSharedReq.missRate::cpu.data     0.035469                       # miss rate for ReadSharedReq accesses (Ratio)
system.l2cache.ReadSharedReq.missRate::total     0.035469                       # miss rate for ReadSharedReq accesses (Ratio)
system.l2cache.ReadSharedReq.avgMissLatency::cpu.data 76028.657617                       # average ReadSharedReq miss latency ((Tick/Count))
system.l2cache.ReadSharedReq.avgMissLatency::total 76028.657617                       # average ReadSharedReq miss latency ((Tick/Count))
system.l2cache.ReadSharedReq.mshrMisses::cpu.data         1326                       # number of ReadSharedReq MSHR misses (Count)
system.l2cache.ReadSharedReq.mshrMisses::total         1326                       # number of ReadSharedReq MSHR misses (Count)
system.l2cache.ReadSharedReq.mshrMissLatency::cpu.data     90206000                       # number of ReadSharedReq MSHR miss ticks (Tick)
system.l2cache.ReadSharedReq.mshrMissLatency::total     90206000                       # number of ReadSharedReq MSHR miss ticks (Tick)
system.l2cache.ReadSharedReq.mshrMissRate::cpu.data     0.035469                       # mshr miss rate for ReadSharedReq accesses (Ratio)
system.l2cache.ReadSharedReq.mshrMissRate::total     0.035469                       # mshr miss rate for ReadSharedReq accesses (Ratio)
system.l2cache.ReadSharedReq.avgMshrMissLatency::cpu.data 68028.657617                       # average ReadSharedReq mshr miss latency ((Tick/Count))
system.l2cache.ReadSharedReq.avgMshrMissLatency::total 68028.657617                       # average ReadSharedReq mshr miss latency ((Tick/Count))
system.l2cache.WritebackClean.hits::writebacks          443                       # number of WritebackClean hits (Count)
system.l2cache.WritebackClean.hits::total          443                       # number of WritebackClean hits (Count)
system.l2cache.WritebackClean.accesses::writebacks          443                       # number of WritebackClean accesses(hits+misses) (Count)
system.l2cache.WritebackClean.accesses::total          443                       # number of WritebackClean accesses(hits+misses) (Count)
system.l2cache.WritebackDirty.hits::writebacks        38592                       # number of WritebackDirty hits (Count)
system.l2cache.WritebackDirty.hits::total        38592                       # number of WritebackDirty hits (Count)
system.l2cache.WritebackDirty.accesses::writebacks        38592                       # number of WritebackDirty accesses(hits+misses) (Count)
system.l2cache.WritebackDirty.accesses::total        38592                       # number of WritebackDirty accesses(hits+misses) (Count)
system.l2cache.power_state.pwrStateResidencyTicks::UNDEFINED  35002733000                       # Cumulative time (in ticks) in various power states (Tick)
system.l2cache.tags.tagsInUse             1017.941445                       # Average ticks per tags in use ((Tick/Count))
system.l2cache.tags.totalRefs                   80737                       # Total number of references to valid blocks. (Count)
system.l2cache.tags.sampledRefs                  3999                       # Sample count of references to valid blocks. (Count)
system.l2cache.tags.avgRefs                 20.189297                       # Average number of references to valid blocks. ((Count/Count))
system.l2cache.tags.warmupTick                  77000                       # The tick when the warmup percentage was hit. (Tick)
system.l2cache.tags.occupancies::writebacks    20.766854                       # Average occupied blocks per tick, per requestor ((Count/Tick))
system.l2cache.tags.occupancies::cpu.inst    32.986112                       # Average occupied blocks per tick, per requestor ((Count/Tick))
system.l2cache.tags.occupancies::cpu.data   964.188479                       # Average occupied blocks per tick, per requestor ((Count/Tick))
system.l2cache.tags.avgOccs::writebacks      0.020280                       # Average percentage of cache occupancy ((Ratio/Tick))
system.l2cache.tags.avgOccs::cpu.inst        0.032213                       # Average percentage of cache occupancy ((Ratio/Tick))
system.l2cache.tags.avgOccs::cpu.data        0.941590                       # Average percentage of cache occupancy ((Ratio/Tick))
system.l2cache.tags.avgOccs::total           0.994083                       # Average percentage of cache occupancy ((Ratio/Tick))
system.l2cache.tags.occupanciesTaskId::1024         1024                       # Occupied blocks per task id (Count)
system.l2cache.tags.ageTaskId_1024::0              96                       # Occupied blocks per task id, per block age (Count)
system.l2cache.tags.ageTaskId_1024::1              91                       # Occupied blocks per task id, per block age (Count)
system.l2cache.tags.ageTaskId_1024::2             340                       # Occupied blocks per task id, per block age (Count)
system.l2cache.tags.ageTaskId_1024::3             448                       # Occupied blocks per task id, per block age (Count)
system.l2cache.tags.ageTaskId_1024::4              49                       # Occupied blocks per task id, per block age (Count)
system.l2cache.tags.ratioOccsTaskId::1024            1                       # Ratio of occupied blocks and all blocks, per task id (Ratio)
system.l2cache.tags.tagAccesses              82683807                       # Number of tag accesses (Count)
system.l2cache.tags.dataAccesses             82683807                       # Number of data accesses (Count)
system.l2cache.tags.power_state.pwrStateResidencyTicks::UNDEFINED  35002733000                       # Cumulative time (in ticks) in various power states (Tick)
system.mem_ctrl.avgPriority_writebacks::samples      1779.00                       # Average QoS priority value for accepted requests (Count)
system.mem_ctrl.avgPriority_cpu.inst::samples       534.00                       # Average QoS priority value for accepted requests (Count)
system.mem_ctrl.avgPriority_cpu.data::samples      3272.00                       # Average QoS priority value for accepted requests (Count)
system.mem_ctrl.priorityMinLatency       0.000000018750                       # per QoS priority minimum request to response latency (Second)
system.mem_ctrl.priorityMaxLatency       0.008886986500                       # per QoS priority maximum request to response latency (Second)
system.mem_ctrl.numReadWriteTurnArounds            99                       # Number of turnarounds from READ to WRITE (Count)
system.mem_ctrl.numWriteReadTurnArounds            99                       # Number of turnarounds from WRITE to READ (Count)
system.mem_ctrl.numStayReadState                18352                       # Number of times bus staying in READ state (Count)
system.mem_ctrl.numStayWriteState                1660                       # Number of times bus staying in WRITE state (Count)
system.mem_ctrl.readReqs                         3808                       # Number of read requests accepted (Count)
system.mem_ctrl.writeReqs                        1779                       # Number of write requests accepted (Count)
system.mem_ctrl.readBursts                       3808                       # Number of controller read bursts, including those serviced by the write queue (Count)
system.mem_ctrl.writeBursts                      1779                       # Number of controller write bursts, including those merged in the write queue (Count)
system.mem_ctrl.servicedByWrQ                       2                       # Number of controller read bursts serviced by the write queue (Count)
system.mem_ctrl.mergedWrBursts                      0                       # Number of controller write bursts merged with an existing one (Count)
system.mem_ctrl.neitherReadNorWriteReqs             0                       # Number of requests that are neither read nor write (Count)
system.mem_ctrl.avgRdQLen                        1.00                       # Average read queue length when enqueuing ((Count/Tick))
system.mem_ctrl.avgWrQLen                       23.78                       # Average write queue length when enqueuing ((Count/Tick))
system.mem_ctrl.numRdRetry                          0                       # Number of times read queue was full causing retry (Count)
system.mem_ctrl.numWrRetry                          0                       # Number of times write queue was full causing retry (Count)
system.mem_ctrl.readPktSize::0                      0                       # Read request sizes (log2) (Count)
system.mem_ctrl.readPktSize::1                      0                       # Read request sizes (log2) (Count)
system.mem_ctrl.readPktSize::2                      0                       # Read request sizes (log2) (Count)
system.mem_ctrl.readPktSize::3                      0                       # Read request sizes (log2) (Count)
system.mem_ctrl.readPktSize::4                      0                       # Read request sizes (log2) (Count)
system.mem_ctrl.readPktSize::5                      0                       # Read request sizes (log2) (Count)
system.mem_ctrl.readPktSize::6                   3808                       # Read request sizes (log2) (Count)
system.mem_ctrl.writePktSize::0                     0                       # Write request sizes (log2) (Count)
system.mem_ctrl.writePktSize::1                     0                       # Write request sizes (log2) (Count)
system.mem_ctrl.writePktSize::2                     0                       # Write request sizes (log2) (Count)
system.mem_ctrl.writePktSize::3                     0                       # Write request sizes (log2) (Count)
system.mem_ctrl.writePktSize::4                     0                       # Write request sizes (log2) (Count)
system.mem_ctrl.writePktSize::5                     0                       # Write request sizes (log2) (Count)
system.mem_ctrl.writePktSize::6                  1779                       # Write request sizes (log2) (Count)
system.mem_ctrl.rdQLenPdf::0                     3806                       # What read queue length does an incoming req see (Count)
system.mem_ctrl.rdQLenPdf::1                        0                       # What read queue length does an incoming req see (Count)
system.mem_ctrl.rdQLenPdf::2                        0                       # What read queue length does an incoming req see (Count)
system.mem_ctrl.rdQLenPdf::3                        0                       # What read queue length does an incoming req see (Count)
system.mem_ctrl.rdQLenPdf::4                        0                       # What read queue length does an incoming req see (Count)
system.mem_ctrl.rdQLenPdf::5                        0                       # What read queue length does an incoming req see (Count)
system.mem_ctrl.rdQLenPdf::6                        0                       # What read queue length does an incoming req see (Count)
system.mem_ctrl.rdQLenPdf::7                        0                       # What read queue length does an incoming req see (Count)
system.mem_ctrl.rdQLenPdf::8                        0                       # What read queue length does an incoming req see (Count)
system.mem_ctrl.rdQLenPdf::9                        0                       # What read queue length does an incoming req see (Count)
system.mem_ctrl.rdQLenPdf::10                       0                       # What read queue length does an incoming req see (Count)
system.mem_ctrl.rdQLenPdf::11                       0                       # What read queue length does an incoming req see (Count)
system.mem_ctrl.rdQLenPdf::12                       0                       # What read queue length does an incoming req see (Count)
system.mem_ctrl.rdQLenPdf::13                       0                       # What read queue length does an incoming req see (Count)
system.mem_ctrl.rdQLenPdf::14                       0                       # What read queue length does an incoming req see (Count)
system.mem_ctrl.rdQLenPdf::15                       0                       # What read queue length does an incoming req see (Count)
system.mem_ctrl.rdQLenPdf::16                       0                       # What read queue length does an incoming req see (Count)
system.mem_ctrl.rdQLenPdf::17                       0                       # What read queue length does an incoming req see (Count)
system.mem_ctrl.rdQLenPdf::18                       0                       # What read queue length does an incoming req see (Count)
system.mem_ctrl.rdQLenPdf::19                       0                       # What read queue length does an incoming req see (Count)
system.mem_ctrl.rdQLenPdf::20                       0                       # What read queue length does an incoming req see (Count)
system.mem_ctrl.rdQLenPdf::21                       0                       # What read queue length does an incoming req see (Count)
system.mem_ctrl.rdQLenPdf::22                       0                       # What read queue length does an incoming req see (Count)
system.mem_ctrl.rdQLenPdf::23                       0                       # What read queue length does an incoming req see (Count)
system.mem_ctrl.rdQLenPdf::24                       0                       # What read queue length does an incoming req see (Count)
system.mem_ctrl.rdQLenPdf::25                       0                       # What read queue length does an incoming req see (Count)
system.mem_ctrl.rdQLenPdf::26                       0                       # What read queue length does an incoming req see (Count)
system.mem_ctrl.rdQLenPdf::27                       0                       # What read queue length does an incoming req see (Count)
system.mem_ctrl.rdQLenPdf::28                       0                       # What read queue length does an incoming req see (Count)
[...]
system.mem_ctrl.dram.bytesWritten::total       113856                       # Number of bytes written to this memory (Byte)
system.mem_ctrl.dram.numReads::cpu.inst           534                       # Number of read requests responded to by this memory (Count)
system.mem_ctrl.dram.numReads::cpu.data          3274                       # Number of read requests responded to by this memory (Count)
system.mem_ctrl.dram.numReads::total             3808                       # Number of read requests responded to by this memory (Count)
system.mem_ctrl.dram.numWrites::writebacks         1779                       # Number of write requests responded to by this memory (Count)
system.mem_ctrl.dram.numWrites::total            1779                       # Number of write requests responded to by this memory (Count)
system.mem_ctrl.dram.bwRead::cpu.inst          976381                       # Total read bandwidth from this memory ((Byte/Second))
system.mem_ctrl.dram.bwRead::cpu.data         5986275                       # Total read bandwidth from this memory ((Byte/Second))
system.mem_ctrl.dram.bwRead::total            6962656                       # Total read bandwidth from this memory ((Byte/Second))
system.mem_ctrl.dram.bwInstRead::cpu.inst       976381                       # Instruction read bandwidth from this memory ((Byte/Second))
system.mem_ctrl.dram.bwInstRead::total         976381                       # Instruction read bandwidth from this memory ((Byte/Second))
system.mem_ctrl.dram.bwWrite::writebacks      3252775                       # Write bandwidth from this memory ((Byte/Second))
system.mem_ctrl.dram.bwWrite::total           3252775                       # Write bandwidth from this memory ((Byte/Second))
system.mem_ctrl.dram.bwTotal::writebacks      3252775                       # Total bandwidth to/from this memory ((Byte/Second))
system.mem_ctrl.dram.bwTotal::cpu.inst         976381                       # Total bandwidth to/from this memory ((Byte/Second))
system.mem_ctrl.dram.bwTotal::cpu.data        5986275                       # Total bandwidth to/from this memory ((Byte/Second))
system.mem_ctrl.dram.bwTotal::total          10215431                       # Total bandwidth to/from this memory ((Byte/Second))
system.mem_ctrl.dram.readBursts                  3806                       # Number of DRAM read bursts (Count)
system.mem_ctrl.dram.writeBursts                 1759                       # Number of DRAM write bursts (Count)
system.mem_ctrl.dram.perBankRdBursts::0           325                       # Per bank write bursts (Count)
system.mem_ctrl.dram.perBankRdBursts::1           314                       # Per bank write bursts (Count)
system.mem_ctrl.dram.perBankRdBursts::2           235                       # Per bank write bursts (Count)
system.mem_ctrl.dram.perBankRdBursts::3           331                       # Per bank write bursts (Count)
system.mem_ctrl.dram.perBankRdBursts::4           227                       # Per bank write bursts (Count)
system.mem_ctrl.dram.perBankRdBursts::5           128                       # Per bank write bursts (Count)
system.mem_ctrl.dram.perBankRdBursts::6            53                       # Per bank write bursts (Count)
system.mem_ctrl.dram.perBankRdBursts::7           188                       # Per bank write bursts (Count)
system.mem_ctrl.dram.perBankRdBursts::8           261                       # Per bank write bursts (Count)
system.mem_ctrl.dram.perBankRdBursts::9           253                       # Per bank write bursts (Count)
system.mem_ctrl.dram.perBankRdBursts::10          276                       # Per bank write bursts (Count)
system.mem_ctrl.dram.perBankRdBursts::11          241                       # Per bank write bursts (Count)
system.mem_ctrl.dram.perBankRdBursts::12          254                       # Per bank write bursts (Count)
system.mem_ctrl.dram.perBankRdBursts::13          223                       # Per bank write bursts (Count)
system.mem_ctrl.dram.perBankRdBursts::14          251                       # Per bank write bursts (Count)
system.mem_ctrl.dram.perBankRdBursts::15          246                       # Per bank write bursts (Count)
system.mem_ctrl.dram.perBankWrBursts::0           127                       # Per bank write bursts (Count)
system.mem_ctrl.dram.perBankWrBursts::1           130                       # Per bank write bursts (Count)
system.mem_ctrl.dram.perBankWrBursts::2           131                       # Per bank write bursts (Count)
system.mem_ctrl.dram.perBankWrBursts::3           176                       # Per bank write bursts (Count)
system.mem_ctrl.dram.perBankWrBursts::4            59                       # Per bank write bursts (Count)
system.mem_ctrl.dram.perBankWrBursts::5            25                       # Per bank write bursts (Count)
system.mem_ctrl.dram.perBankWrBursts::6            17                       # Per bank write bursts (Count)
system.mem_ctrl.dram.perBankWrBursts::7            63                       # Per bank write bursts (Count)
system.mem_ctrl.dram.perBankWrBursts::8           131                       # Per bank write bursts (Count)
system.mem_ctrl.dram.perBankWrBursts::9           129                       # Per bank write bursts (Count)
system.mem_ctrl.dram.perBankWrBursts::10          129                       # Per bank write bursts (Count)
system.mem_ctrl.dram.perBankWrBursts::11          128                       # Per bank write bursts (Count)
system.mem_ctrl.dram.perBankWrBursts::12          131                       # Per bank write bursts (Count)
system.mem_ctrl.dram.perBankWrBursts::13          125                       # Per bank write bursts (Count)
system.mem_ctrl.dram.perBankWrBursts::14          129                       # Per bank write bursts (Count)
system.mem_ctrl.dram.perBankWrBursts::15          129                       # Per bank write bursts (Count)
system.mem_ctrl.dram.totQLat                 43909000                       # Total ticks spent queuing (Tick)
system.mem_ctrl.dram.totBusLat               19030000                       # Total ticks spent in databus transfers (Tick)
system.mem_ctrl.dram.totMemAccLat           115271500                       # Total ticks spent from burst creation until serviced by the DRAM (Tick)
system.mem_ctrl.dram.avgQLat                 11536.78                       # Average queueing delay per DRAM burst ((Tick/Count))
system.mem_ctrl.dram.avgBusLat                5000.00                       # Average bus latency per DRAM burst ((Tick/Count))
system.mem_ctrl.dram.avgMemAccLat            30286.78                       # Average memory access latency per DRAM burst ((Tick/Count))
system.mem_ctrl.dram.readRowHits                 2113                       # Number of row buffer hits during reads (Count)
system.mem_ctrl.dram.writeRowHits                1455                       # Number of row buffer hits during writes (Count)
system.mem_ctrl.dram.readRowHitRate             55.52                       # Row buffer hit rate for reads (Ratio)
system.mem_ctrl.dram.writeRowHitRate            82.72                       # Row buffer hit rate for writes (Ratio)
system.mem_ctrl.dram.bytesPerActivate::samples         1993                       # Bytes accessed per row activation (Byte)
system.mem_ctrl.dram.bytesPerActivate::mean   178.159558                       # Bytes accessed per row activation (Byte)
system.mem_ctrl.dram.bytesPerActivate::gmean   128.528253                       # Bytes accessed per row activation (Byte)
system.mem_ctrl.dram.bytesPerActivate::stdev   191.763138                       # Bytes accessed per row activation (Byte)
system.mem_ctrl.dram.bytesPerActivate::0-127          819     41.09%     41.09% # Bytes accessed per row activation (Byte)
system.mem_ctrl.dram.bytesPerActivate::128-255          824     41.34%     82.44% # Bytes accessed per row activation (Byte)
system.mem_ctrl.dram.bytesPerActivate::256-383          149      7.48%     89.91% # Bytes accessed per row activation (Byte)
system.mem_ctrl.dram.bytesPerActivate::384-511           81      4.06%     93.98% # Bytes accessed per row activation (Byte)
system.mem_ctrl.dram.bytesPerActivate::512-639           34      1.71%     95.68% # Bytes accessed per row activation (Byte)
system.mem_ctrl.dram.bytesPerActivate::640-767           14      0.70%     96.39% # Bytes accessed per row activation (Byte)
system.mem_ctrl.dram.bytesPerActivate::768-895            9      0.45%     96.84% # Bytes accessed per row activation (Byte)
system.mem_ctrl.dram.bytesPerActivate::896-1023            9      0.45%     97.29% # Bytes accessed per row activation (Byte)
system.mem_ctrl.dram.bytesPerActivate::1024-1151           54      2.71%    100.00% # Bytes accessed per row activation (Byte)
system.mem_ctrl.dram.bytesPerActivate::total         1993                       # Bytes accessed per row activation (Byte)
system.mem_ctrl.dram.dramBytesRead             243584                       # Total bytes read (Byte)
system.mem_ctrl.dram.dramBytesWritten          112576                       # Total bytes written (Byte)
system.mem_ctrl.dram.avgRdBW                 6.958999                       # Average DRAM read bandwidth in MiBytes/s ((Byte/Second))
system.mem_ctrl.dram.avgWrBW                 3.216206                       # Average DRAM write bandwidth in MiBytes/s ((Byte/Second))
system.mem_ctrl.dram.peakBW                  12800.00                       # Theoretical peak bandwidth in MiByte/s ((Byte/Second))
system.mem_ctrl.dram.busUtil                     0.08                       # Data bus utilization in percentage (Ratio)
system.mem_ctrl.dram.busUtilRead                 0.05                       # Data bus utilization in percentage for reads (Ratio)
system.mem_ctrl.dram.busUtilWrite                0.03                       # Data bus utilization in percentage for writes (Ratio)
system.mem_ctrl.dram.pageHitRate                64.12                       # Row buffer hit rate, read and write combined (Ratio)
system.mem_ctrl.dram.power_state.pwrStateResidencyTicks::UNDEFINED  35002733000                       # Cumulative time (in ticks) in various power states (Tick)
system.mem_ctrl.dram.rank0.actEnergy          6483120                       # Energy for activate commands per rank (pJ) (Joule)
system.mem_ctrl.dram.rank0.preEnergy          3438270                       # Energy for precharge commands per rank (pJ) (Joule)
system.mem_ctrl.dram.rank0.readEnergy        12859140                       # Energy for read commands per rank (pJ) (Joule)
system.mem_ctrl.dram.rank0.writeEnergy        3800160                       # Energy for write commands per rank (pJ) (Joule)
system.mem_ctrl.dram.rank0.refreshEnergy 2762806800.000000                       # Energy for refresh commands per rank (pJ) (Joule)
system.mem_ctrl.dram.rank0.actBackEnergy   1897684470                       # Energy for active background per rank (pJ) (Joule)
system.mem_ctrl.dram.rank0.preBackEnergy  11842999680                       # Energy for precharge background per rank (pJ) (Joule)
system.mem_ctrl.dram.rank0.actPowerDownEnergy            0                       # Energy for active power-down per rank (pJ) (Joule)
system.mem_ctrl.dram.rank0.prePowerDownEnergy            0                       # Energy for precharge power-down per rank (pJ) (Joule)
system.mem_ctrl.dram.rank0.selfRefreshEnergy            0                       # Energy for self refresh per rank (pJ) (Joule)
system.mem_ctrl.dram.rank0.totalEnergy    16530071640                       # Total energy per rank (pJ) (Joule)
system.mem_ctrl.dram.rank0.averagePower    472.250885                       # Core power per rank (mW) (Watt)
system.mem_ctrl.dram.rank0.totalIdleTime            0                       # Total Idle time Per DRAM Rank (Tick)
system.mem_ctrl.dram.rank0.pwrStateTime::IDLE  30770912500                       # Time in different power states (Tick)
system.mem_ctrl.dram.rank0.pwrStateTime::REF   1168700000                       # Time in different power states (Tick)
system.mem_ctrl.dram.rank0.pwrStateTime::SREF            0                       # Time in different power states (Tick)
system.mem_ctrl.dram.rank0.pwrStateTime::PRE_PDN            0                       # Time in different power states (Tick)
system.mem_ctrl.dram.rank0.pwrStateTime::ACT   3063120500                       # Time in different power states (Tick)
system.mem_ctrl.dram.rank0.pwrStateTime::ACT_PDN            0                       # Time in different power states (Tick)
system.mem_ctrl.dram.rank1.actEnergy          7775460                       # Energy for activate commands per rank (pJ) (Joule)
system.mem_ctrl.dram.rank1.preEnergy          4125165                       # Energy for precharge commands per rank (pJ) (Joule)
system.mem_ctrl.dram.rank1.readEnergy        14315700                       # Energy for read commands per rank (pJ) (Joule)
system.mem_ctrl.dram.rank1.writeEnergy        5381820                       # Energy for write commands per rank (pJ) (Joule)
system.mem_ctrl.dram.rank1.refreshEnergy 2762806800.000000                       # Energy for refresh commands per rank (pJ) (Joule)
system.mem_ctrl.dram.rank1.actBackEnergy   2548454610                       # Energy for active background per rank (pJ) (Joule)
system.mem_ctrl.dram.rank1.preBackEnergy  11294982720                       # Energy for precharge background per rank (pJ) (Joule)
system.mem_ctrl.dram.rank1.actPowerDownEnergy            0                       # Energy for active power-down per rank (pJ) (Joule)
system.mem_ctrl.dram.rank1.prePowerDownEnergy            0                       # Energy for precharge power-down per rank (pJ) (Joule)
system.mem_ctrl.dram.rank1.selfRefreshEnergy            0                       # Energy for self refresh per rank (pJ) (Joule)
system.mem_ctrl.dram.rank1.totalEnergy    16637842275                       # Total energy per rank (pJ) (Joule)
system.mem_ctrl.dram.rank1.averagePower    475.329806                       # Core power per rank (mW) (Watt)
system.mem_ctrl.dram.rank1.totalIdleTime            0                       # Total Idle time Per DRAM Rank (Tick)
system.mem_ctrl.dram.rank1.pwrStateTime::IDLE  29339581250                       # Time in different power states (Tick)
system.mem_ctrl.dram.rank1.pwrStateTime::REF   1168700000                       # Time in different power states (Tick)
system.mem_ctrl.dram.rank1.pwrStateTime::SREF            0                       # Time in different power states (Tick)
system.mem_ctrl.dram.rank1.pwrStateTime::PRE_PDN            0                       # Time in different power states (Tick)
system.mem_ctrl.dram.rank1.pwrStateTime::ACT   4494451750                       # Time in different power states (Tick)
system.mem_ctrl.dram.rank1.pwrStateTime::ACT_PDN            0                       # Time in different power states (Tick)
system.mem_ctrl.power_state.pwrStateResidencyTicks::UNDEFINED  35002733000                       # Cumulative time (in ticks) in various power states (Tick)
system.membus.transDist::ReadResp                1860                       # Transaction distribution (Count)
system.membus.transDist::WritebackDirty          1779                       # Transaction distribution (Count)
system.membus.transDist::CleanEvict               963                       # Transaction distribution (Count)
system.membus.transDist::ReadExReq               1948                       # Transaction distribution (Count)
system.membus.transDist::ReadExResp              1948                       # Transaction distribution (Count)
system.membus.transDist::ReadSharedReq           1860                       # Transaction distribution (Count)
system.membus.pktCount_system.l2cache.mem_side_port::system.mem_ctrl.port        10358                       # Packet count per connected requestor and responder (Count)
system.membus.pktCount_system.l2cache.mem_side_port::total        10358                       # Packet count per connected requestor and responder (Count)
system.membus.pktCount::total                   10358                       # Packet count per connected requestor and responder (Count)
system.membus.pktSize_system.l2cache.mem_side_port::system.mem_ctrl.port       357568                       # Cumulative packet size per connected requestor and responder (Byte)
system.membus.pktSize_system.l2cache.mem_side_port::total       357568                       # Cumulative packet size per connected requestor and responder (Byte)
system.membus.pktSize::total                   357568                       # Cumulative packet size per connected requestor and responder (Byte)
system.membus.snoops                                0                       # Total snoops (Count)
system.membus.snoopTraffic                          0                       # Total snoop traffic (Byte)
system.membus.snoopFanout::samples               3808                       # Request fanout histogram (Count)
system.membus.snoopFanout::mean                     0                       # Request fanout histogram (Count)
system.membus.snoopFanout::stdev                    0                       # Request fanout histogram (Count)
system.membus.snoopFanout::underflows               0      0.00%      0.00% # Request fanout histogram (Count)
system.membus.snoopFanout::0                     3808    100.00%    100.00% # Request fanout histogram (Count)
system.membus.snoopFanout::1                        0      0.00%    100.00% # Request fanout histogram (Count)
system.membus.snoopFanout::overflows                0      0.00%    100.00% # Request fanout histogram (Count)
system.membus.snoopFanout::min_value                0                       # Request fanout histogram (Count)
system.membus.snoopFanout::max_value                0                       # Request fanout histogram (Count)
system.membus.snoopFanout::total                 3808                       # Request fanout histogram (Count)
system.membus.power_state.pwrStateResidencyTicks::UNDEFINED  35002733000                       # Cumulative time (in ticks) in various power states (Tick)
system.membus.reqLayer2.occupancy            13666000                       # Layer occupancy (ticks) (Tick)
system.membus.reqLayer2.utilization               0.0                       # Layer utilization (Ratio)
system.membus.respLayer0.occupancy           20431500                       # Layer occupancy (ticks) (Tick)
system.membus.respLayer0.utilization              0.0                       # Layer utilization (Ratio)
system.membus.snoop_filter.totRequests           6550                       # Total number of requests made to the snoop filter. (Count)
system.membus.snoop_filter.hitSingleRequests         2742                       # Number of requests hitting in the snoop filter with a single holder of the requested data. (Count)
system.membus.snoop_filter.hitMultiRequests            0                       # Number of requests hitting in the snoop filter with multiple (>1) holders of the requested data. (Count)
system.membus.snoop_filter.totSnoops                0                       # Total number of snoops made to the snoop filter. (Count)
system.membus.snoop_filter.hitSingleSnoops            0                       # Number of snoops hitting in the snoop filter with a single holder of the requested data. (Count)
system.membus.snoop_filter.hitMultiSnoops            0                       # Number of snoops hitting in the snoop filter with multiple (>1) holders of the requested data. (Count)
system.workload.inst.arm                            0                       # number of arm instructions executed (Count)
system.workload.inst.quiesce                        0                       # number of quiesce instructions executed (Count)

---------- End Simulation Statistics   ----------
