
---------- Begin Simulation Statistics ----------
simSeconds                                   0.056634                       # Number of seconds simulated (Second)
simTicks                                  56633962000                       # Number of ticks simulated (Tick)
finalTick                                 56633962000                       # Number of ticks from beginning of simulation (restored from checkpoints and never reset) (Tick)
simFreq                                  1000000000000                       # The number of ticks per simulated second ((Tick/Second))
hostSeconds                                     53.83                       # Real time elapsed on the host (Second)
hostTickRate                               1052186079                       # The number of ticks simulated per host second (ticks/s) ((Tick/Second))
hostMemory                                     764368                       # Number of bytes of host memory used (Byte)
simInsts                                     14398349                       # Number of instructions simulated (Count)
simOps                                       22253458                       # Number of ops (including micro ops) simulated (Count)
hostInstRate                                   267502                       # Simulator instruction rate (inst/s) ((Count/Second))
hostOpRate                                     413439                       # Simulator op (including micro ops) rate (op/s) ((Count/Second))
system.clk_domain.clock                          1000                       # Clock period in ticks (Tick)
system.clk_domain.voltage_domain.voltage            1                       # Voltage in Volts (Volt)
system.cpu.numCycles                         56633962                       # Number of cpu cycles simulated (Cycle)
system.cpu.cpi                               3.933353                       # CPI: cycles per instruction (core level) ((Cycle/Count))
system.cpu.ipc                               0.254236                       # IPC: instructions per cycle (core level) ((Count/Cycle))
system.cpu.numWorkItemsStarted                      0                       # Number of work items this cpu started (Count)
system.cpu.numWorkItemsCompleted                    0                       # Number of work items this cpu completed (Count)
system.cpu.commitStats0.numInsts             14398394                       # Number of instructions committed (thread level) (Count)
system.cpu.commitStats0.numOps               22253505                       # Number of ops (including micro ops) committed (thread level) (Count)
system.cpu.commitStats0.numInstsNotNOP              0                       # Number of instructions committed excluding NOPs or prefetches (Count)
system.cpu.commitStats0.numOpsNotNOP                0                       # Number of Ops (including micro ops) Simulated (Count)
system.cpu.commitStats0.cpi                  3.933353                       # CPI: cycles per instruction (thread level) ((Cycle/Count))
system.cpu.commitStats0.ipc                  0.254236                       # IPC: instructions per cycle (thread level) ((Count/Cycle))
system.cpu.commitStats0.numMemRefs                  0                       # Number of memory references committed (Count)
system.cpu.commitStats0.numFpInsts            2564524                       # Number of float instructions (Count)
system.cpu.commitStats0.numIntInsts          20798348                       # Number of integer instructions (Count)
system.cpu.commitStats0.numLoadInsts          6314830                       # Number of load instructions (Count)
system.cpu.commitStats0.numStoreInsts         1937666                       # Number of store instructions (Count)
system.cpu.commitStats0.numVecInsts                 0                       # Number of vector instructions (Count)
system.cpu.commitStats0.committedInstType::No_OpClass        37661      0.17%      0.17% # Class of committed instruction. (Count)
system.cpu.commitStats0.committedInstType::IntAlu     12549979     56.40%     56.56% # Class of committed instruction. (Count)
system.cpu.commitStats0.committedInstType::IntMult        12295      0.06%     56.62% # Class of committed instruction. (Count)
system.cpu.commitStats0.committedInstType::IntDiv           42      0.00%     56.62% # Class of committed instruction. (Count)
system.cpu.commitStats0.committedInstType::FloatAdd       823299      3.70%     60.32% # Class of committed instruction. (Count)
system.cpu.commitStats0.committedInstType::FloatCmp            0      0.00%     60.32% # Class of committed instruction. (Count)
system.cpu.commitStats0.committedInstType::FloatCvt            0      0.00%     60.32% # Class of committed instruction. (Count)
system.cpu.commitStats0.committedInstType::FloatMult            0      0.00%     60.32% # Class of committed instruction. (Count)
system.cpu.commitStats0.committedInstType::FloatMultAcc            0      0.00%     60.32% # Class of committed instruction. (Count)
system.cpu.commitStats0.committedInstType::FloatDiv            0      0.00%     60.32% # Class of committed instruction. (Count)
system.cpu.commitStats0.committedInstType::FloatMisc            0      0.00%     60.32% # Class of committed instruction. (Count)
system.cpu.commitStats0.committedInstType::FloatSqrt            0      0.00%     60.32% # Class of committed instruction. (Count)
system.cpu.commitStats0.committedInstType::SimdAdd            0      0.00%     60.32% # Class of committed instruction. (Count)
system.cpu.commitStats0.committedInstType::SimdAddAcc            0      0.00%     60.32% # Class of committed instruction. (Count)
system.cpu.commitStats0.committedInstType::SimdAlu        24654      0.11%     60.43% # Class of committed instruction. (Count)
system.cpu.commitStats0.committedInstType::SimdCmp            0      0.00%     60.43% # Class of committed instruction. (Count)
system.cpu.commitStats0.committedInstType::SimdCvt           50      0.00%     60.43% # Class of committed instruction. (Count)
system.cpu.commitStats0.committedInstType::SimdMisc           69      0.00%     60.43% # Class of committed instruction. (Count)
system.cpu.commitStats0.committedInstType::SimdMult            0      0.00%     60.43% # Class of committed instruction. (Count)
system.cpu.commitStats0.committedInstType::SimdMultAcc            0      0.00%     60.43% # Class of committed instruction. (Count)
system.cpu.commitStats0.committedInstType::SimdMatMultAcc            0      0.00%     60.43% # Class of committed instruction. (Count)
system.cpu.commitStats0.committedInstType::SimdShift            0      0.00%     60.43% # Class of committed instruction. (Count)
system.cpu.commitStats0.committedInstType::SimdShiftAcc            0      0.00%     60.43% # Class of committed instruction. (Count)
system.cpu.commitStats0.committedInstType::SimdDiv            0      0.00%     60.43% # Class of committed instruction. (Count)
system.cpu.commitStats0.committedInstType::SimdSqrt            0      0.00%     60.43% # Class of committed instruction. (Count)
system.cpu.commitStats0.committedInstType::SimdFloatAdd       282624      1.27%     61.70% # Class of committed instruction. (Count)
system.cpu.commitStats0.committedInstType::SimdFloatAlu            0      0.00%     61.70% # Class of committed instruction. (Count)
system.cpu.commitStats0.committedInstType::SimdFloatCmp            0      0.00%     61.70% # Class of committed instruction. (Count)
system.cpu.commitStats0.committedInstType::SimdFloatCvt            0      0.00%     61.70% # Class of committed instruction. (Count)
system.cpu.commitStats0.committedInstType::SimdFloatDiv            0      0.00%     61.70% # Class of committed instruction. (Count)
system.cpu.commitStats0.committedInstType::SimdFloatMisc            0      0.00%     61.70% # Class of committed instruction. (Count)
system.cpu.commitStats0.committedInstType::SimdFloatMult       270336      1.21%     62.92% # Class of committed instruction. (Count)
system.cpu.commitStats0.committedInstType::SimdFloatMultAcc            0      0.00%     62.92% # Class of committed instruction. (Count)
system.cpu.commitStats0.committedInstType::SimdFloatMatMultAcc            0      0.00%     62.92% # Class of committed instruction. (Count)
system.cpu.commitStats0.committedInstType::SimdFloatSqrt            0      0.00%     62.92% # Class of committed instruction. (Count)
system.cpu.commitStats0.committedInstType::SimdReduceAdd            0      0.00%     62.92% # Class of committed instruction. (Count)
system.cpu.commitStats0.committedInstType::SimdReduceAlu            0      0.00%     62.92% # Class of committed instruction. (Count)
system.cpu.commitStats0.committedInstType::SimdReduceCmp            0      0.00%     62.92% # Class of committed instruction. (Count)
system.cpu.commitStats0.committedInstType::SimdFloatReduceAdd            0      0.00%     62.92% # Class of committed instruction. (Count)
system.cpu.commitStats0.committedInstType::SimdFloatReduceCmp            0      0.00%     62.92% # Class of committed instruction. (Count)
system.cpu.commitStats0.committedInstType::SimdAes            0      0.00%     62.92% # Class of committed instruction. (Count)
system.cpu.commitStats0.committedInstType::SimdAesMix            0      0.00%     62.92% # Class of committed instruction. (Count)
system.cpu.commitStats0.committedInstType::SimdSha1Hash            0      0.00%     62.92% # Class of committed instruction. (Count)
system.cpu.commitStats0.committedInstType::SimdSha1Hash2            0      0.00%     62.92% # Class of committed instruction. (Count)
system.cpu.commitStats0.committedInstType::SimdSha256Hash            0      0.00%     62.92% # Class of committed instruction. (Count)
system.cpu.commitStats0.committedInstType::SimdSha256Hash2            0      0.00%     62.92% # Class of committed instruction. (Count)
system.cpu.commitStats0.committedInstType::SimdShaSigma2            0      0.00%     62.92% # Class of committed instruction. (Count)
system.cpu.commitStats0.committedInstType::SimdShaSigma3            0      0.00%     62.92% # Class of committed instruction. (Count)
system.cpu.commitStats0.committedInstType::SimdPredAlu            0      0.00%     62.92% # Class of committed instruction. (Count)
system.cpu.commitStats0.committedInstType::Matrix            0      0.00%     62.92% # Class of committed instruction. (Count)
system.cpu.commitStats0.committedInstType::MatrixMov            0      0.00%     62.92% # Class of committed instruction. (Count)
system.cpu.commitStats0.committedInstType::MatrixOP            0      0.00%     62.92% # Class of committed instruction. (Count)
system.cpu.commitStats0.committedInstType::MemRead      5471002     24.58%     87.50% # Class of committed instruction. (Count)
system.cpu.commitStats0.committedInstType::MemWrite      1634397      7.34%     94.85% # Class of committed instruction. (Count)
system.cpu.commitStats0.committedInstType::FloatMemRead       843828      3.79%     98.64% # Class of committed instruction. (Count)
system.cpu.commitStats0.committedInstType::FloatMemWrite       303269      1.36%    100.00% # Class of committed instruction. (Count)
system.cpu.commitStats0.committedInstType::IprAccess            0      0.00%    100.00% # Class of committed instruction. (Count)
system.cpu.commitStats0.committedInstType::InstPrefetch            0      0.00%    100.00% # Class of committed instruction. (Count)
system.cpu.commitStats0.committedInstType::VectorUnitStrideLoad            0      0.00%    100.00% # Class of committed instruction. (Count)
system.cpu.commitStats0.committedInstType::VectorUnitStrideStore            0      0.00%    100.00% # Class of committed instruction. (Count)
system.cpu.commitStats0.committedInstType::VectorUnitStrideMaskLoad            0      0.00%    100.00% # Class of committed instruction. (Count)
system.cpu.commitStats0.committedInstType::VectorUnitStrideMaskStore            0      0.00%    100.00% # Class of committed instruction. (Count)
system.cpu.commitStats0.committedInstType::VectorStridedLoad            0      0.00%    100.00% # Class of committed instruction. (Count)
system.cpu.commitStats0.committedInstType::VectorStridedStore            0      0.00%    100.00% # Class of committed instruction. (Count)
system.cpu.commitStats0.committedInstType::VectorIndexedLoad            0      0.00%    100.00% # Class of committed instruction. (Count)
system.cpu.commitStats0.committedInstType::VectorIndexedStore            0      0.00%    100.00% # Class of committed instruction. (Count)
system.cpu.commitStats0.committedInstType::VectorUnitStrideFaultOnlyFirstLoad            0      0.00%    100.00% # Class of committed instruction. (Count)
system.cpu.commitStats0.committedInstType::VectorWholeRegisterLoad            0      0.00%    100.00% # Class of committed instruction. (Count)
system.cpu.commitStats0.committedInstType::VectorWholeRegisterStore            0      0.00%    100.00% # Class of committed instruction. (Count)
system.cpu.commitStats0.committedInstType::VectorIntegerArith            0      0.00%    100.00% # Class of committed instruction. (Count)
system.cpu.commitStats0.committedInstType::VectorFloatArith            0      0.00%    100.00% # Class of committed instruction. (Count)
system.cpu.commitStats0.committedInstType::VectorFloatConvert            0      0.00%    100.00% # Class of committed instruction. (Count)
system.cpu.commitStats0.committedInstType::VectorIntegerReduce            0      0.00%    100.00% # Class of committed instruction. (Count)
system.cpu.commitStats0.committedInstType::VectorFloatReduce            0      0.00%    100.00% # Class of committed instruction. (Count)
system.cpu.commitStats0.committedInstType::VectorMisc            0      0.00%    100.00% # Class of committed instruction. (Count)
system.cpu.commitStats0.committedInstType::VectorIntegerExtension            0      0.00%    100.00% # Class of committed instruction. (Count)
system.cpu.commitStats0.committedInstType::VectorConfig            0      0.00%    100.00% # Class of committed instruction. (Count)
system.cpu.commitStats0.committedInstType::total     22253505                       # Class of committed instruction. (Count)
system.cpu.commitStats0.committedControl::IsControl      1454544                       # Class of control type instructions committed (Count)
system.cpu.commitStats0.committedControl::IsDirectControl      1121172                       # Class of control type instructions committed (Count)
system.cpu.commitStats0.committedControl::IsIndirectControl       333372                       # Class of control type instructions committed (Count)
system.cpu.commitStats0.committedControl::IsCondControl       709230                       # Class of control type instructions committed (Count)
system.cpu.commitStats0.committedControl::IsUncondControl       745314                       # Class of control type instructions committed (Count)
system.cpu.commitStats0.committedControl::IsCall       325110                       # Class of control type instructions committed (Count)
system.cpu.commitStats0.committedControl::IsReturn       325106                       # Class of control type instructions committed (Count)
system.cpu.dcache.demandHits::cpu.data        8241346                       # number of demand (read+write) hits (Count)
system.cpu.dcache.demandHits::total           8241346                       # number of demand (read+write) hits (Count)
system.cpu.dcache.overallHits::cpu.data       8241346                       # number of overall hits (Count)
system.cpu.dcache.overallHits::total          8241346                       # number of overall hits (Count)
system.cpu.dcache.demandMisses::cpu.data        11126                       # number of demand (read+write) misses (Count)
system.cpu.dcache.demandMisses::total           11126                       # number of demand (read+write) misses (Count)
system.cpu.dcache.overallMisses::cpu.data        11126                       # number of overall misses (Count)
system.cpu.dcache.overallMisses::total          11126                       # number of overall misses (Count)
system.cpu.dcache.demandMissLatency::cpu.data    450346000                       # number of demand (read+write) miss ticks (Tick)
system.cpu.dcache.demandMissLatency::total    450346000                       # number of demand (read+write) miss ticks (Tick)
system.cpu.dcache.overallMissLatency::cpu.data    450346000                       # number of overall miss ticks (Tick)
system.cpu.dcache.overallMissLatency::total    450346000                       # number of overall miss ticks (Tick)
system.cpu.dcache.demandAccesses::cpu.data      8252472                       # number of demand (read+write) accesses (Count)
system.cpu.dcache.demandAccesses::total       8252472                       # number of demand (read+write) accesses (Count)
system.cpu.dcache.overallAccesses::cpu.data      8252472                       # number of overall (read+write) accesses (Count)
system.cpu.dcache.overallAccesses::total      8252472                       # number of overall (read+write) accesses (Count)
system.cpu.dcache.demandMissRate::cpu.data     0.001348                       # miss rate for demand accesses (Ratio)
system.cpu.dcache.demandMissRate::total      0.001348                       # miss rate for demand accesses (Ratio)
system.cpu.dcache.overallMissRate::cpu.data     0.001348                       # miss rate for overall accesses (Ratio)
system.cpu.dcache.overallMissRate::total     0.001348                       # miss rate for overall accesses (Ratio)
system.cpu.dcache.demandAvgMissLatency::cpu.data 40476.900953                       # average overall miss latency in ticks ((Tick/Count))
system.cpu.dcache.demandAvgMissLatency::total 40476.900953                       # average overall miss latency in ticks ((Tick/Count))
system.cpu.dcache.overallAvgMissLatency::cpu.data 40476.900953                       # average overall miss latency ((Tick/Count))
system.cpu.dcache.overallAvgMissLatency::total 40476.900953                       # average overall miss latency ((Tick/Count))
system.cpu.dcache.blockedCycles::no_mshrs            0                       # number of cycles access was blocked (Cycle)
system.cpu.dcache.blockedCycles::no_targets            0                       # number of cycles access was blocked (Cycle)
system.cpu.dcache.blockedCauses::no_mshrs            0                       # number of times access was blocked (Count)
system.cpu.dcache.blockedCauses::no_targets            0                       # number of times access was blocked (Count)
system.cpu.dcache.avgBlocked::no_mshrs            nan                       # average number of cycles each access was blocked ((Cycle/Count))
system.cpu.dcache.avgBlocked::no_targets          nan                       # average number of cycles each access was blocked ((Cycle/Count))
system.cpu.dcache.writebacks::writebacks         6418                       # number of writebacks (Count)
system.cpu.dcache.writebacks::total              6418                       # number of writebacks (Count)
system.cpu.dcache.demandMshrMisses::cpu.data        11126                       # number of demand (read+write) MSHR misses (Count)
system.cpu.dcache.demandMshrMisses::total        11126                       # number of demand (read+write) MSHR misses (Count)
system.cpu.dcache.overallMshrMisses::cpu.data        11126                       # number of overall MSHR misses (Count)
system.cpu.dcache.overallMshrMisses::total        11126                       # number of overall MSHR misses (Count)
system.cpu.dcache.demandMshrMissLatency::cpu.data    428094000                       # number of demand (read+write) MSHR miss ticks (Tick)
system.cpu.dcache.demandMshrMissLatency::total    428094000                       # number of demand (read+write) MSHR miss ticks (Tick)
system.cpu.dcache.overallMshrMissLatency::cpu.data    428094000                       # number of overall MSHR miss ticks (Tick)
system.cpu.dcache.overallMshrMissLatency::total    428094000                       # number of overall MSHR miss ticks (Tick)
system.cpu.dcache.demandMshrMissRate::cpu.data     0.001348                       # mshr miss ratio for demand accesses (Ratio)
system.cpu.dcache.demandMshrMissRate::total     0.001348                       # mshr miss ratio for demand accesses (Ratio)
system.cpu.dcache.overallMshrMissRate::cpu.data     0.001348                       # mshr miss ratio for overall accesses (Ratio)
system.cpu.dcache.overallMshrMissRate::total     0.001348                       # mshr miss ratio for overall accesses (Ratio)
system.cpu.dcache.demandAvgMshrMissLatency::cpu.data 38476.900953                       # average overall mshr miss latency ((Tick/Count))
system.cpu.dcache.demandAvgMshrMissLatency::total 38476.900953                       # average overall mshr miss latency ((Tick/Count))
system.cpu.dcache.overallAvgMshrMissLatency::cpu.data 38476.900953                       # average overall mshr miss latency ((Tick/Count))
system.cpu.dcache.overallAvgMshrMissLatency::total 38476.900953                       # average overall mshr miss latency ((Tick/Count))
system.cpu.dcache.replacements                  10998                       # number of replacements (Count)
system.cpu.dcache.ReadReq.hits::cpu.data      6305714                       # number of ReadReq hits (Count)
system.cpu.dcache.ReadReq.hits::total         6305714                       # number of ReadReq hits (Count)
system.cpu.dcache.ReadReq.misses::cpu.data         9120                       # number of ReadReq misses (Count)
system.cpu.dcache.ReadReq.misses::total          9120                       # number of ReadReq misses (Count)
system.cpu.dcache.ReadReq.missLatency::cpu.data    324869000                       # number of ReadReq miss ticks (Tick)
system.cpu.dcache.ReadReq.missLatency::total    324869000                       # number of ReadReq miss ticks (Tick)
system.cpu.dcache.ReadReq.accesses::cpu.data      6314834                       # number of ReadReq accesses(hits+misses) (Count)
system.cpu.dcache.ReadReq.accesses::total      6314834                       # number of ReadReq accesses(hits+misses) (Count)
system.cpu.dcache.ReadReq.missRate::cpu.data     0.001444                       # miss rate for ReadReq accesses (Ratio)
system.cpu.dcache.ReadReq.missRate::total     0.001444                       # miss rate for ReadReq accesses (Ratio)
system.cpu.dcache.ReadReq.avgMissLatency::cpu.data 35621.600877                       # average ReadReq miss latency ((Tick/Count))
system.cpu.dcache.ReadReq.avgMissLatency::total 35621.600877                       # average ReadReq miss latency ((Tick/Count))
system.cpu.dcache.ReadReq.mshrMisses::cpu.data         9120                       # number of ReadReq MSHR misses (Count)
system.cpu.dcache.ReadReq.mshrMisses::total         9120                       # number of ReadReq MSHR misses (Count)
system.cpu.dcache.ReadReq.mshrMissLatency::cpu.data    306629000                       # number of ReadReq MSHR miss ticks (Tick)
system.cpu.dcache.ReadReq.mshrMissLatency::total    306629000                       # number of ReadReq MSHR miss ticks (Tick)
system.cpu.dcache.ReadReq.mshrMissRate::cpu.data     0.001444                       # mshr miss rate for ReadReq accesses (Ratio)
system.cpu.dcache.ReadReq.mshrMissRate::total     0.001444                       # mshr miss rate for ReadReq accesses (Ratio)
system.cpu.dcache.ReadReq.avgMshrMissLatency::cpu.data 33621.600877                       # average ReadReq mshr miss latency ((Tick/Count))
system.cpu.dcache.ReadReq.avgMshrMissLatency::total 33621.600877                       # average ReadReq mshr miss latency ((Tick/Count))
system.cpu.dcache.WriteReq.hits::cpu.data      1935632                       # number of WriteReq hits (Count)
system.cpu.dcache.WriteReq.hits::total        1935632                       # number of WriteReq hits (Count)
system.cpu.dcache.WriteReq.misses::cpu.data         2006                       # number of WriteReq misses (Count)
system.cpu.dcache.WriteReq.misses::total         2006                       # number of WriteReq misses (Count)
system.cpu.dcache.WriteReq.missLatency::cpu.data    125477000                       # number of WriteReq miss ticks (Tick)
system.cpu.dcache.WriteReq.missLatency::total    125477000                       # number of WriteReq miss ticks (Tick)
system.cpu.dcache.WriteReq.accesses::cpu.data      1937638                       # number of WriteReq accesses(hits+misses) (Count)
system.cpu.dcache.WriteReq.accesses::total      1937638                       # number of WriteReq accesses(hits+misses) (Count)
system.cpu.dcache.WriteReq.missRate::cpu.data     0.001035                       # miss rate for WriteReq accesses (Ratio)
system.cpu.dcache.WriteReq.missRate::total     0.001035                       # miss rate for WriteReq accesses (Ratio)
system.cpu.dcache.WriteReq.avgMissLatency::cpu.data 62550.847458                       # average WriteReq miss latency ((Tick/Count))
system.cpu.dcache.WriteReq.avgMissLatency::total 62550.847458                       # average WriteReq miss latency ((Tick/Count))
system.cpu.dcache.WriteReq.mshrMisses::cpu.data         2006                       # number of WriteReq MSHR misses (Count)
system.cpu.dcache.WriteReq.mshrMisses::total         2006                       # number of WriteReq MSHR misses (Count)
system.cpu.dcache.WriteReq.mshrMissLatency::cpu.data    121465000                       # number of WriteReq MSHR miss ticks (Tick)
system.cpu.dcache.WriteReq.mshrMissLatency::total    121465000                       # number of WriteReq MSHR miss ticks (Tick)
system.cpu.dcache.WriteReq.mshrMissRate::cpu.data     0.001035                       # mshr miss rate for WriteReq accesses (Ratio)
system.cpu.dcache.WriteReq.mshrMissRate::total     0.001035                       # mshr miss rate for WriteReq accesses (Ratio)
system.cpu.dcache.WriteReq.avgMshrMissLatency::cpu.data 60550.847458                       # average WriteReq mshr miss latency ((Tick/Count))
system.cpu.dcache.WriteReq.avgMshrMissLatency::total 60550.847458                       # average WriteReq mshr miss latency ((Tick/Count))
system.cpu.dcache.power_state.pwrStateResidencyTicks::UNDEFINED  56633962000                       # Cumulative time (in ticks) in various power states (Tick)
system.cpu.dcache.tags.tagsInUse           127.959356                       # Average ticks per tags in use ((Tick/Count))
system.cpu.dcache.tags.totalRefs              8252472                       # Total number of references to valid blocks. (Count)
system.cpu.dcache.tags.sampledRefs              11126                       # Sample count of references to valid blocks. (Count)
system.cpu.dcache.tags.avgRefs             741.728564                       # Average number of references to valid blocks. ((Count/Count))
system.cpu.dcache.tags.warmupTick              179000                       # The tick when the warmup percentage was hit. (Tick)
system.cpu.dcache.tags.occupancies::cpu.data   127.959356                       # Average occupied blocks per tick, per requestor ((Count/Tick))
system.cpu.dcache.tags.avgOccs::cpu.data     0.999682                       # Average percentage of cache occupancy ((Ratio/Tick))
system.cpu.dcache.tags.avgOccs::total        0.999682                       # Average percentage of cache occupancy ((Ratio/Tick))
system.cpu.dcache.tags.occupanciesTaskId::1024          128                       # Occupied blocks per task id (Count)
system.cpu.dcache.tags.ageTaskId_1024::0           25                       # Occupied blocks per task id, per block age (Count)
system.cpu.dcache.tags.ageTaskId_1024::1           84                       # Occupied blocks per task id, per block age (Count)
system.cpu.dcache.tags.ageTaskId_1024::2           12                       # Occupied blocks per task id, per block age (Count)
system.cpu.dcache.tags.ageTaskId_1024::3            3                       # Occupied blocks per task id, per block age (Count)
system.cpu.dcache.tags.ageTaskId_1024::4            4                       # Occupied blocks per task id, per block age (Count)
system.cpu.dcache.tags.ratioOccsTaskId::1024            1                       # Ratio of occupied blocks and all blocks, per task id (Ratio)
system.cpu.dcache.tags.tagAccesses           33021014                       # Number of tag accesses (Count)
system.cpu.dcache.tags.dataAccesses          33021014                       # Number of data accesses (Count)
system.cpu.dcache.tags.power_state.pwrStateResidencyTicks::UNDEFINED  56633962000                       # Cumulative time (in ticks) in various power states (Tick)
system.cpu.exec_context.thread_0.numMatAluAccesses            0                       # Number of matrix alu accesses (Count)
system.cpu.exec_context.thread_0.numCallsReturns       650216                       # Number of times a function call or return occured (Count)
system.cpu.exec_context.thread_0.numMatInsts            0                       # Number of matrix instructions (Count)
system.cpu.exec_context.thread_0.numIdleCycles     0.001000                       # Number of idle cycles (Cycle)
system.cpu.exec_context.thread_0.numBusyCycles 56633961.999000                       # Number of busy cycles (Cycle)
system.cpu.exec_context.thread_0.notIdleFraction     1.000000                       # Percentage of non-idle cycles (Ratio)
system.cpu.exec_context.thread_0.idleFraction     0.000000                       # Percentage of idle cycles (Ratio)
system.cpu.executeStats0.numInsts                   0                       # Number of executed instructions (Count)
system.cpu.executeStats0.numNop                     0                       # Number of nop insts executed (Count)
system.cpu.executeStats0.numBranches                0                       # Number of branches executed (Count)
system.cpu.executeStats0.numLoadInsts               0                       # Number of load instructions executed (Count)
system.cpu.executeStats0.numStoreInsts        8252496                       # Number of stores executed (Count)
system.cpu.executeStats0.instRate                   0                       # Inst execution rate ((Count/Cycle))
system.cpu.executeStats0.numFpAluAccesses      2564524                       # Number of float alu accesses (Count)
system.cpu.executeStats0.numFpRegReads        2044490                       # Number of times the floating registers were read (Count)
system.cpu.executeStats0.numFpRegWrites       2261207                       # Number of times the floating registers were written (Count)
system.cpu.executeStats0.numIntAluAccesses     20798348                       # Number of integer alu accesses (Count)
system.cpu.executeStats0.numIntRegReads      27555087                       # Number of times the integer registers were read (Count)
system.cpu.executeStats0.numIntRegWrites     15868754                       # Number of times the integer registers were written (Count)
system.cpu.executeStats0.numMemRefs           8252496                       # Number of memory refs (Count)
system.cpu.executeStats0.numMiscRegReads     11453207                       # Number of times the Misc registers were read (Count)
system.cpu.executeStats0.numVecAluAccesses            0                       # Number of vector alu accesses (Count)
system.cpu.executeStats0.numDiscardedOps            0                       # Number of ops (including micro ops) which were discarded before commit (Count)
system.cpu.fetchStats0.numInsts              14398394                       # Number of instructions fetched (thread level) (Count)
system.cpu.fetchStats0.numOps                22253505                       # Number of ops (including micro ops) fetched (thread level) (Count)
system.cpu.fetchStats0.fetchRate             0.254236                       # Number of inst fetches per cycle ((Count/Cycle))
system.cpu.fetchStats0.numBranches            1454544                       # Number of branches fetched (Count)
system.cpu.fetchStats0.branchRate            0.025683                       # Number of branch fetches per cycle (Ratio)
system.cpu.fetchStats0.numFetchSuspends             0                       # Number of times Execute suspended instruction fetching (Count)
system.cpu.icache.demandHits::cpu.inst       19828885                       # number of demand (read+write) hits (Count)
system.cpu.icache.demandHits::total          19828885                       # number of demand (read+write) hits (Count)
system.cpu.icache.overallHits::cpu.inst      19828885                       # number of overall hits (Count)
system.cpu.icache.overallHits::total         19828885                       # number of overall hits (Count)
system.cpu.icache.demandMisses::cpu.inst          564                       # number of demand (read+write) misses (Count)
system.cpu.icache.demandMisses::total             564                       # number of demand (read+write) misses (Count)
system.cpu.icache.overallMisses::cpu.inst          564                       # number of overall misses (Count)
system.cpu.icache.overallMisses::total            564                       # number of overall misses (Count)
system.cpu.icache.demandMissLatency::cpu.inst     43162000                       # number of demand (read+write) miss ticks (Tick)
system.cpu.icache.demandMissLatency::total     43162000                       # number of demand (read+write) miss ticks (Tick)
system.cpu.icache.overallMissLatency::cpu.inst     43162000                       # number of overall miss ticks (Tick)
system.cpu.icache.overallMissLatency::total     43162000                       # number of overall miss ticks (Tick)
system.cpu.icache.demandAccesses::cpu.inst     19829449                       # number of demand (read+write) accesses (Count)
system.cpu.icache.demandAccesses::total      19829449                       # number of demand (read+write) accesses (Count)
system.cpu.icache.overallAccesses::cpu.inst     19829449                       # number of overall (read+write) accesses (Count)
system.cpu.icache.overallAccesses::total     19829449                       # number of overall (read+write) accesses (Count)
system.cpu.icache.demandMissRate::cpu.inst     0.000028                       # miss rate for demand accesses (Ratio)
system.cpu.icache.demandMissRate::total      0.000028                       # miss rate for demand accesses (Ratio)
system.cpu.icache.overallMissRate::cpu.inst     0.000028                       # miss rate for overall accesses (Ratio)
system.cpu.icache.overallMissRate::total     0.000028                       # miss rate for overall accesses (Ratio)
system.cpu.icache.demandAvgMissLatency::cpu.inst 76528.368794                       # average overall miss latency in ticks ((Tick/Count))
system.cpu.icache.demandAvgMissLatency::total 76528.368794                       # average overall miss latency in ticks ((Tick/Count))
system.cpu.icache.overallAvgMissLatency::cpu.inst 76528.368794                       # average overall miss latency ((Tick/Count))
system.cpu.icache.overallAvgMissLatency::total 76528.368794                       # average overall miss latency ((Tick/Count))
system.cpu.icache.blockedCycles::no_mshrs            0                       # number of cycles access was blocked (Cycle)
system.cpu.icache.blockedCycles::no_targets            0                       # number of cycles access was blocked (Cycle)
system.cpu.icache.blockedCauses::no_mshrs            0                       # number of times access was blocked (Count)
system.cpu.icache.blockedCauses::no_targets            0                       # number of times access was blocked (Count)
system.cpu.icache.avgBlocked::no_mshrs            nan                       # average number of cycles each access was blocked ((Cycle/Count))
system.cpu.icache.avgBlocked::no_targets          nan                       # average number of cycles each access was blocked ((Cycle/Count))
system.cpu.icache.writebacks::writebacks          436                       # number of writebacks (Count)
system.cpu.icache.writebacks::total               436                       # number of writebacks (Count)
system.cpu.icache.demandMshrMisses::cpu.inst          564                       # number of demand (read+write) MSHR misses (Count)
system.cpu.icache.demandMshrMisses::total          564                       # number of demand (read+write) MSHR misses (Count)
system.cpu.icache.overallMshrMisses::cpu.inst          564                       # number of overall MSHR misses (Count)
system.cpu.icache.overallMshrMisses::total          564                       # number of overall MSHR misses (Count)
system.cpu.icache.demandMshrMissLatency::cpu.inst     42034000                       # number of demand (read+write) MSHR miss ticks (Tick)
system.cpu.icache.demandMshrMissLatency::total     42034000                       # number of demand (read+write) MSHR miss ticks (Tick)
system.cpu.icache.overallMshrMissLatency::cpu.inst     42034000                       # number of overall MSHR miss ticks (Tick)
system.cpu.icache.overallMshrMissLatency::total     42034000                       # number of overall MSHR miss ticks (Tick)
system.cpu.icache.demandMshrMissRate::cpu.inst     0.000028                       # mshr miss ratio for demand accesses (Ratio)
system.cpu.icache.demandMshrMissRate::total     0.000028                       # mshr miss ratio for demand accesses (Ratio)
system.cpu.icache.overallMshrMissRate::cpu.inst     0.000028                       # mshr miss ratio for overall accesses (Ratio)
system.cpu.icache.overallMshrMissRate::total     0.000028                       # mshr miss ratio for overall accesses (Ratio)
system.cpu.icache.demandAvgMshrMissLatency::cpu.inst 74528.368794                       # average overall mshr miss latency ((Tick/Count))
system.cpu.icache.demandAvgMshrMissLatency::total 74528.368794                       # average overall mshr miss latency ((Tick/Count))
system.cpu.icache.overallAvgMshrMissLatency::cpu.inst 74528.368794                       # average overall mshr miss latency ((Tick/Count))
system.cpu.icache.overallAvgMshrMissLatency::total 74528.368794                       # average overall mshr miss latency ((Tick/Count))
system.cpu.icache.replacements                    436                       # number of replacements (Count)
system.cpu.icache.ReadReq.hits::cpu.inst     19828885                       # number of ReadReq hits (Count)
system.cpu.icache.ReadReq.hits::total        19828885                       # number of ReadReq hits (Count)
system.cpu.icache.ReadReq.misses::cpu.inst          564                       # number of ReadReq misses (Count)
system.cpu.icache.ReadReq.misses::total           564                       # number of ReadReq misses (Count)
system.cpu.icache.ReadReq.missLatency::cpu.inst     43162000                       # number of ReadReq miss ticks (Tick)
system.cpu.icache.ReadReq.missLatency::total     43162000                       # number of ReadReq miss ticks (Tick)
system.cpu.icache.ReadReq.accesses::cpu.inst     19829449                       # number of ReadReq accesses(hits+misses) (Count)
system.cpu.icache.ReadReq.accesses::total     19829449                       # number of ReadReq accesses(hits+misses) (Count)
system.cpu.icache.ReadReq.missRate::cpu.inst     0.000028                       # miss rate for ReadReq accesses (Ratio)
system.cpu.icache.ReadReq.missRate::total     0.000028                       # miss rate for ReadReq accesses (Ratio)
system.cpu.icache.ReadReq.avgMissLatency::cpu.inst 76528.368794                       # average ReadReq miss latency ((Tick/Count))
system.cpu.icache.ReadReq.avgMissLatency::total 76528.368794                       # average ReadReq miss latency ((Tick/Count))
system.cpu.icache.ReadReq.mshrMisses::cpu.inst          564                       # number of ReadReq MSHR misses (Count)
system.cpu.icache.ReadReq.mshrMisses::total          564                       # number of ReadReq MSHR misses (Count)
system.cpu.icache.ReadReq.mshrMissLatency::cpu.inst     42034000                       # number of ReadReq MSHR miss ticks (Tick)
system.cpu.icache.ReadReq.mshrMissLatency::total     42034000                       # number of ReadReq MSHR miss ticks (Tick)
system.cpu.icache.ReadReq.mshrMissRate::cpu.inst     0.000028                       # mshr miss rate for ReadReq accesses (Ratio)
system.cpu.icache.ReadReq.mshrMissRate::total     0.000028                       # mshr miss rate for ReadReq accesses (Ratio)
system.cpu.icache.ReadReq.avgMshrMissLatency::cpu.inst 74528.368794                       # average ReadReq mshr miss latency ((Tick/Count))
system.cpu.icache.ReadReq.avgMshrMissLatency::total 74528.368794                       # average ReadReq mshr miss latency ((Tick/Count))
system.cpu.icache.power_state.pwrStateResidencyTicks::UNDEFINED  56633962000                       # Cumulative time (in ticks) in various power states (Tick)
system.cpu.icache.tags.tagsInUse           127.966077                       # Average ticks per tags in use ((Tick/Count))
system.cpu.icache.tags.totalRefs             19829449                       # Total number of references to valid blocks. (Count)
system.cpu.icache.tags.sampledRefs                564                       # Sample count of references to valid blocks. (Count)
system.cpu.icache.tags.avgRefs           35158.597518                       # Average number of references to valid blocks. ((Count/Count))
system.cpu.icache.tags.warmupTick               86000                       # The tick when the warmup percentage was hit. (Tick)
system.cpu.icache.tags.occupancies::cpu.inst   127.966077                       # Average occupied blocks per tick, per requestor ((Count/Tick))
system.cpu.icache.tags.avgOccs::cpu.inst     0.999735                       # Average percentage of cache occupancy ((Ratio/Tick))
system.cpu.icache.tags.avgOccs::total        0.999735                       # Average percentage of cache occupancy ((Ratio/Tick))
system.cpu.icache.tags.occupanciesTaskId::1024          128                       # Occupied blocks per task id (Count)
system.cpu.icache.tags.ageTaskId_1024::0           42                       # Occupied blocks per task id, per block age (Count)
system.cpu.icache.tags.ageTaskId_1024::1            2                       # Occupied blocks per task id, per block age (Count)
system.cpu.icache.tags.ageTaskId_1024::2           43                       # Occupied blocks per task id, per block age (Count)
system.cpu.icache.tags.ageTaskId_1024::3           23                       # Occupied blocks per task id, per block age (Count)
system.cpu.icache.tags.ageTaskId_1024::4           18                       # Occupied blocks per task id, per block age (Count)
system.cpu.icache.tags.ratioOccsTaskId::1024            1                       # Ratio of occupied blocks and all blocks, per task id (Ratio)
system.cpu.icache.tags.tagAccesses           79318360                       # Number of tag accesses (Count)
system.cpu.icache.tags.dataAccesses          79318360                       # Number of data accesses (Count)
system.cpu.icache.tags.power_state.pwrStateResidencyTicks::UNDEFINED  56633962000                       # Cumulative time (in ticks) in various power states (Tick)
system.cpu.interrupts.clk_domain.clock          16000                       # Clock period in ticks (Tick)
system.cpu.mmu.dtb.rdAccesses                 6314835                       # TLB accesses on read requests (Count)
system.cpu.mmu.dtb.wrAccesses                 1937667                       # TLB accesses on write requests (Count)
system.cpu.mmu.dtb.rdMisses                        13                       # TLB misses on read requests (Count)
system.cpu.mmu.dtb.wrMisses                        62                       # TLB misses on write requests (Count)
system.cpu.mmu.dtb.walker.power_state.pwrStateResidencyTicks::UNDEFINED  56633962000                       # Cumulative time (in ticks) in various power states (Tick)
system.cpu.mmu.itb.rdAccesses                       0                       # TLB accesses on read requests (Count)
system.cpu.mmu.itb.wrAccesses                19829449                       # TLB accesses on write requests (Count)
system.cpu.mmu.itb.rdMisses                         0                       # TLB misses on read requests (Count)
system.cpu.mmu.itb.wrMisses                        48                       # TLB misses on write requests (Count)
system.cpu.mmu.itb.walker.power_state.pwrStateResidencyTicks::UNDEFINED  56633962000                       # Cumulative time (in ticks) in various power states (Tick)
system.cpu.power_state.pwrStateResidencyTicks::ON  56633962000                       # Cumulative time (in ticks) in various power states (Tick)
system.cpu.thread_0.numInsts                        0                       # Number of Instructions committed (Count)
system.cpu.thread_0.numOps                          0                       # Number of Ops committed (Count)
system.cpu.thread_0.numMemRefs                      0                       # Number of Memory References (Count)
system.cpu.workload.numSyscalls                    17                       # Number of system calls (Count)
system.l2bus.transDist::ReadResp                 9684                       # Transaction distribution (Count)
system.l2bus.transDist::WritebackDirty           8122                       # Transaction distribution (Count)
system.l2bus.transDist::WritebackClean            436                       # Transaction distribution (Count)
system.l2bus.transDist::CleanEvict               6820                       # Transaction distribution (Count)
system.l2bus.transDist::ReadExReq                2006                       # Transaction distribution (Count)
system.l2bus.transDist::ReadExResp               2006                       # Transaction distribution (Count)
system.l2bus.transDist::ReadCleanReq              564                       # Transaction distribution (Count)
system.l2bus.transDist::ReadSharedReq            9120                       # Transaction distribution (Count)
system.l2bus.pktCount_system.cpu.icache.mem_side_port::system.l2cache.cpu_side_port         1564                       # Packet count per connected requestor and responder (Count)
system.l2bus.pktCount_system.cpu.dcache.mem_side_port::system.l2cache.cpu_side_port        33250                       # Packet count per connected requestor and responder (Count)
system.l2bus.pktCount::total                    34814                       # Packet count per connected requestor and responder (Count)
system.l2bus.pktSize_system.cpu.icache.mem_side_port::system.l2cache.cpu_side_port        64000                       # Cumulative packet size per connected requestor and responder (Byte)
system.l2bus.pktSize_system.cpu.dcache.mem_side_port::system.l2cache.cpu_side_port      1122816                       # Cumulative packet size per connected requestor and responder (Byte)
system.l2bus.pktSize::total                   1186816                       # Cumulative packet size per connected requestor and responder (Byte)
system.l2bus.snoops                              3944                       # Total snoops (Count)
system.l2bus.snoopTraffic                      109056                       # Total snoop traffic (Byte)
system.l2bus.snoopFanout::samples               15634                       # Request fanout histogram (Count)
system.l2bus.snoopFanout::mean               0.015863                       # Request fanout histogram (Count)
system.l2bus.snoopFanout::stdev              0.124949                       # Request fanout histogram (Count)
system.l2bus.snoopFanout::underflows                0      0.00%      0.00% # Request fanout histogram (Count)
system.l2bus.snoopFanout::0                     15386     98.41%     98.41% # Request fanout histogram (Count)
system.l2bus.snoopFanout::1                       248      1.59%    100.00% # Request fanout histogram (Count)
system.l2bus.snoopFanout::2                         0      0.00%    100.00% # Request fanout histogram (Count)
system.l2bus.snoopFanout::overflows                 0      0.00%    100.00% # Request fanout histogram (Count)
system.l2bus.snoopFanout::min_value                 0                       # Request fanout histogram (Count)
system.l2bus.snoopFanout::max_value                 1                       # Request fanout histogram (Count)
system.l2bus.snoopFanout::total                 15634                       # Request fanout histogram (Count)
system.l2bus.power_state.pwrStateResidencyTicks::UNDEFINED  56633962000                       # Cumulative time (in ticks) in various power states (Tick)
system.l2bus.reqLayer0.occupancy             36832000                       # Layer occupancy (ticks) (Tick)
system.l2bus.reqLayer0.utilization                0.0                       # Layer utilization (Ratio)
system.l2bus.respLayer0.occupancy             1692000                       # Layer occupancy (ticks) (Tick)
system.l2bus.respLayer0.utilization               0.0                       # Layer utilization (Ratio)
system.l2bus.respLayer1.occupancy            33378000                       # Layer occupancy (ticks) (Tick)
system.l2bus.respLayer1.utilization               0.0                       # Layer utilization (Ratio)
system.l2bus.snoop_filter.totRequests           23124                       # Total number of requests made to the snoop filter. (Count)
system.l2bus.snoop_filter.hitSingleRequests        11434                       # Number of requests hitting in the snoop filter with a single holder of the requested data. (Count)
system.l2bus.snoop_filter.hitMultiRequests            0                       # Number of requests hitting in the snoop filter with multiple (>1) holders of the requested data. (Count)
system.l2bus.snoop_filter.totSnoops               248                       # Total number of snoops made to the snoop filter. (Count)
system.l2bus.snoop_filter.hitSingleSnoops          248                       # Number of snoops hitting in the snoop filter with a single holder of the requested data. (Count)
system.l2bus.snoop_filter.hitMultiSnoops            0                       # Number of snoops hitting in the snoop filter with multiple (>1) holders of the requested data. (Count)
system.l2cache.demandHits::cpu.inst                33                       # number of demand (read+write) hits (Count)
system.l2cache.demandHits::cpu.data              6877                       # number of demand (read+write) hits (Count)
system.l2cache.demandHits::total                 6910                       # number of demand (read+write) hits (Count)
system.l2cache.overallHits::cpu.inst               33                       # number of overall hits (Count)
system.l2cache.overallHits::cpu.data             6877                       # number of overall hits (Count)
system.l2cache.overallHits::total                6910                       # number of overall hits (Count)
system.l2cache.demandMisses::cpu.inst             531                       # number of demand (read+write) misses (Count)
system.l2cache.demandMisses::cpu.data            4249                       # number of demand (read+write) misses (Count)
system.l2cache.demandMisses::total               4780                       # number of demand (read+write) misses (Count)
system.l2cache.overallMisses::cpu.inst            531                       # number of overall misses (Count)
system.l2cache.overallMisses::cpu.data           4249                       # number of overall misses (Count)
system.l2cache.overallMisses::total              4780                       # number of overall misses (Count)
system.l2cache.demandMissLatency::cpu.inst     40032000                       # number of demand (read+write) miss ticks (Tick)
system.l2cache.demandMissLatency::cpu.data    332805000                       # number of demand (read+write) miss ticks (Tick)
system.l2cache.demandMissLatency::total     372837000                       # number of demand (read+write) miss ticks (Tick)
system.l2cache.overallMissLatency::cpu.inst     40032000                       # number of overall miss ticks (Tick)
system.l2cache.overallMissLatency::cpu.data    332805000                       # number of overall miss ticks (Tick)
system.l2cache.overallMissLatency::total    372837000                       # number of overall miss ticks (Tick)
system.l2cache.demandAccesses::cpu.inst           564                       # number of demand (read+write) accesses (Count)
system.l2cache.demandAccesses::cpu.data         11126                       # number of demand (read+write) accesses (Count)
system.l2cache.demandAccesses::total            11690                       # number of demand (read+write) accesses (Count)
system.l2cache.overallAccesses::cpu.inst          564                       # number of overall (read+write) accesses (Count)
system.l2cache.overallAccesses::cpu.data        11126                       # number of overall (read+write) accesses (Count)
system.l2cache.overallAccesses::total           11690                       # number of overall (read+write) accesses (Count)
system.l2cache.demandMissRate::cpu.inst      0.941489                       # miss rate for demand accesses (Ratio)
system.l2cache.demandMissRate::cpu.data      0.381898                       # miss rate for demand accesses (Ratio)
system.l2cache.demandMissRate::total         0.408896                       # miss rate for demand accesses (Ratio)
system.l2cache.overallMissRate::cpu.inst     0.941489                       # miss rate for overall accesses (Ratio)
system.l2cache.overallMissRate::cpu.data     0.381898                       # miss rate for overall accesses (Ratio)
system.l2cache.overallMissRate::total        0.408896                       # miss rate for overall accesses (Ratio)
system.l2cache.demandAvgMissLatency::cpu.inst 75389.830508                       # average overall miss latency in ticks ((Tick/Count))
system.l2cache.demandAvgMissLatency::cpu.data 78325.488350                       # average overall miss latency in ticks ((Tick/Count))
system.l2cache.demandAvgMissLatency::total 77999.372385                       # average overall miss latency in ticks ((Tick/Count))
system.l2cache.overallAvgMissLatency::cpu.inst 75389.830508                       # average overall miss latency ((Tick/Count))
system.l2cache.overallAvgMissLatency::cpu.data 78325.488350                       # average overall miss latency ((Tick/Count))
system.l2cache.overallAvgMissLatency::total 77999.372385                       # average overall miss latency ((Tick/Count))
system.l2cache.blockedCycles::no_mshrs              0                       # number of cycles access was blocked (Cycle)
system.l2cache.blockedCycles::no_targets            0                       # number of cycles access was blocked (Cycle)
system.l2cache.blockedCauses::no_mshrs              0                       # number of times access was blocked (Count)
system.l2cache.blockedCauses::no_targets            0                       # number of times access was blocked (Count)
system.l2cache.avgBlocked::no_mshrs               nan                       # average number of cycles each access was blocked ((Cycle/Count))
system.l2cache.avgBlocked::no_targets             nan                       # average number of cycles each access was blocked ((Cycle/Count))
system.l2cache.writebacks::writebacks            1704                       # number of writebacks (Count)
system.l2cache.writebacks::total                 1704                       # number of writebacks (Count)
system.l2cache.demandMshrMisses::cpu.inst          531                       # number of demand (read+write) MSHR misses (Count)
system.l2cache.demandMshrMisses::cpu.data         4249                       # number of demand (read+write) MSHR misses (Count)
system.l2cache.demandMshrMisses::total           4780                       # number of demand (read+write) MSHR misses (Count)
system.l2cache.overallMshrMisses::cpu.inst          531                       # number of overall MSHR misses (Count)
system.l2cache.overallMshrMisses::cpu.data         4249                       # number of overall MSHR misses (Count)
system.l2cache.overallMshrMisses::total          4780                       # number of overall MSHR misses (Count)
system.l2cache.demandMshrMissLatency::cpu.inst     35784000                       # number of demand (read+write) MSHR miss ticks (Tick)
system.l2cache.demandMshrMissLatency::cpu.data    298813000                       # number of demand (read+write) MSHR miss ticks (Tick)
system.l2cache.demandMshrMissLatency::total    334597000                       # number of demand (read+write) MSHR miss ticks (Tick)
system.l2cache.overallMshrMissLatency::cpu.inst     35784000                       # number of overall MSHR miss ticks (Tick)
system.l2cache.overallMshrMissLatency::cpu.data    298813000                       # number of overall MSHR miss ticks (Tick)
system.l2cache.overallMshrMissLatency::total    334597000                       # number of overall MSHR miss ticks (Tick)
system.l2cache.demandMshrMissRate::cpu.inst     0.941489                       # mshr miss ratio for demand accesses (Ratio)
system.l2cache.demandMshrMissRate::cpu.data     0.381898                       # mshr miss ratio for demand accesses (Ratio)
system.l2cache.demandMshrMissRate::total     0.408896                       # mshr miss ratio for demand accesses (Ratio)
system.l2cache.overallMshrMissRate::cpu.inst     0.941489                       # mshr miss ratio for overall accesses (Ratio)
system.l2cache.overallMshrMissRate::cpu.data     0.381898                       # mshr miss ratio for overall accesses (Ratio)
system.l2cache.overallMshrMissRate::total     0.408896                       # mshr miss ratio for overall accesses (Ratio)
system.l2cache.demandAvgMshrMissLatency::cpu.inst 67389.830508                       # average overall mshr miss latency ((Tick/Count))
system.l2cache.demandAvgMshrMissLatency::cpu.data 70325.488350                       # average overall mshr miss latency ((Tick/Count))
system.l2cache.demandAvgMshrMissLatency::total 69999.372385                       # average overall mshr miss latency ((Tick/Count))
system.l2cache.overallAvgMshrMissLatency::cpu.inst 67389.830508                       # average overall mshr miss latency ((Tick/Count))
system.l2cache.overallAvgMshrMissLatency::cpu.data 70325.488350                       # average overall mshr miss latency ((Tick/Count))
system.l2cache.overallAvgMshrMissLatency::total 69999.372385                       # average overall mshr miss latency ((Tick/Count))
system.l2cache.replacements                      3944                       # number of replacements (Count)
system.l2cache.CleanEvict.mshrMisses::writebacks           13                       # number of CleanEvict MSHR misses (Count)
system.l2cache.CleanEvict.mshrMisses::total           13                       # number of CleanEvict MSHR misses (Count)
system.l2cache.CleanEvict.mshrMissRate::writebacks          inf                       # mshr miss rate for CleanEvict accesses (Ratio)
system.l2cache.CleanEvict.mshrMissRate::total          inf                       # mshr miss rate for CleanEvict accesses (Ratio)
system.l2cache.ReadCleanReq.hits::cpu.inst           33                       # number of ReadCleanReq hits (Count)
system.l2cache.ReadCleanReq.hits::total            33                       # number of ReadCleanReq hits (Count)
system.l2cache.ReadCleanReq.misses::cpu.inst          531                       # number of ReadCleanReq misses (Count)
system.l2cache.ReadCleanReq.misses::total          531                       # number of ReadCleanReq misses (Count)
system.l2cache.ReadCleanReq.missLatency::cpu.inst     40032000                       # number of ReadCleanReq miss ticks (Tick)
system.l2cache.ReadCleanReq.missLatency::total     40032000                       # number of ReadCleanReq miss ticks (Tick)
system.l2cache.ReadCleanReq.accesses::cpu.inst          564                       # number of ReadCleanReq accesses(hits+misses) (Count)
system.l2cache.ReadCleanReq.accesses::total          564                       # number of ReadCleanReq accesses(hits+misses) (Count)
system.l2cache.ReadCleanReq.missRate::cpu.inst     0.941489                       # miss rate for ReadCleanReq accesses (Ratio)
system.l2cache.ReadCleanReq.missRate::total     0.941489                       # miss rate for ReadCleanReq accesses (Ratio)
system.l2cache.ReadCleanReq.avgMissLatency::cpu.inst 75389.830508                       # average ReadCleanReq miss latency ((Tick/Count))
system.l2cache.ReadCleanReq.avgMissLatency::total 75389.830508                       # average ReadCleanReq miss latency ((Tick/Count))
system.l2cache.ReadCleanReq.mshrMisses::cpu.inst          531                       # number of ReadCleanReq MSHR misses (Count)
system.l2cache.ReadCleanReq.mshrMisses::total          531                       # number of ReadCleanReq MSHR misses (Count)
system.l2cache.ReadCleanReq.mshrMissLatency::cpu.inst     35784000                       # number of ReadCleanReq MSHR miss ticks (Tick)
system.l2cache.ReadCleanReq.mshrMissLatency::total     35784000                       # number of ReadCleanReq MSHR miss ticks (Tick)
system.l2cache.ReadCleanReq.mshrMissRate::cpu.inst     0.941489                       # mshr miss rate for ReadCleanReq accesses (Ratio)
system.l2cache.ReadCleanReq.mshrMissRate::total     0.941489                       # mshr miss rate for ReadCleanReq accesses (Ratio)
system.l2cache.ReadCleanReq.avgMshrMissLatency::cpu.inst 67389.830508                       # average ReadCleanReq mshr miss latency ((Tick/Count))
system.l2cache.ReadCleanReq.avgMshrMissLatency::total 67389.830508                       # average ReadCleanReq mshr miss latency ((Tick/Count))
system.l2cache.ReadExReq.hits::cpu.data           569                       # number of ReadExReq hits (Count)
system.l2cache.ReadExReq.hits::total              569                       # number of ReadExReq hits (Count)
system.l2cache.ReadExReq.misses::cpu.data         1437                       # number of ReadExReq misses (Count)
system.l2cache.ReadExReq.misses::total           1437                       # number of ReadExReq misses (Count)
system.l2cache.ReadExReq.missLatency::cpu.data    110322000                       # number of ReadExReq miss ticks (Tick)
system.l2cache.ReadExReq.missLatency::total    110322000                       # number of ReadExReq miss ticks (Tick)
system.l2cache.ReadExReq.accesses::cpu.data         2006                       # number of ReadExReq accesses(hits+misses) (Count)
system.l2cache.ReadExReq.accesses::total         2006                       # number of ReadExReq accesses(hits+misses) (Count)
system.l2cache.ReadExReq.missRate::cpu.data     0.716351                       # miss rate for ReadExReq accesses (Ratio)
system.l2cache.ReadExReq.missRate::total     0.716351                       # miss rate for ReadExReq accesses (Ratio)
system.l2cache.ReadExReq.avgMissLatency::cpu.data 76772.442589                       # average ReadExReq miss latency ((Tick/Count))
system.l2cache.ReadExReq.avgMissLatency::total 76772.442589                       # average ReadExReq miss latency ((Tick/Count))
system.l2cache.ReadExReq.mshrMisses::cpu.data         1437                       # number of ReadExReq MSHR misses (Count)
system.l2cache.ReadExReq.mshrMisses::total         1437                       # number of ReadExReq MSHR misses (Count)
system.l2cache.ReadExReq.mshrMissLatency::cpu.data     98826000                       # number of ReadExReq MSHR miss ticks (Tick)
system.l2cache.ReadExReq.mshrMissLatency::total     98826000                       # number of ReadExReq MSHR miss ticks (Tick)
system.l2cache.ReadExReq.mshrMissRate::cpu.data     0.716351                       # mshr miss rate for ReadExReq accesses (Ratio)
system.l2cache.ReadExReq.mshrMissRate::total     0.716351                       # mshr miss rate for ReadExReq accesses (Ratio)
system.l2cache.ReadExReq.avgMshrMissLatency::cpu.data 68772.442589                       # average ReadExReq mshr miss latency ((Tick/Count))
system.l2cache.ReadExReq.avgMshrMissLatency::total 68772.442589                       # average ReadExReq mshr miss latency ((Tick/Count))
system.l2cache.ReadSharedReq.hits::cpu.data         6308                       # number of ReadSharedReq hits (Count)
system.l2cache.ReadSharedReq.hits::total         6308                       # number of ReadSharedReq hits (Count)
system.l2cache.ReadSharedReq.misses::cpu.data         2812                       # number of ReadSharedReq misses (Count)
system.l2cache.ReadSharedReq.misses::total         2812                       # number of ReadSharedReq misses (Count)
system.l2cache.ReadSharedReq.missLatency::cpu.data    222483000                       # number of ReadSharedReq miss ticks (Tick)
system.l2cache.ReadSharedReq.missLatency::total    222483000                       # number of ReadSharedReq miss ticks (Tick)
system.l2cache.ReadSharedReq.accesses::cpu.data         9120                       # number of ReadSharedReq accesses(hits+misses) (Count)
system.l2cache.ReadSharedReq.accesses::total         9120                       # number of ReadSharedReq accesses(hits+misses) (Count)
system.l2cache.ReadSharedReq.missRate::cpu.data     0.308333                       # miss rate for ReadSharedReq accesses (Ratio)
system.l2cache.ReadSharedReq.missRate::total     0.308333                       # miss rate for ReadSharedReq accesses (Ratio)
system.l2cache.ReadSharedReq.avgMissLatency::cpu.data 79119.132290                       # average ReadSharedReq miss latency ((Tick/Count))
system.l2cache.ReadSharedReq.avgMissLatency::total 79119.132290                       # average ReadSharedReq miss latency ((Tick/Count))
system.l2cache.ReadSharedReq.mshrMisses::cpu.data         2812                       # number of ReadSharedReq MSHR misses (Count)
system.l2cache.ReadSharedReq.mshrMisses::total         2812                       # number of ReadSharedReq MSHR misses (Count)
system.l2cache.ReadSharedReq.mshrMissLatency::cpu.data    199987000                       # number of ReadSharedReq MSHR miss ticks (Tick)
system.l2cache.ReadSharedReq.mshrMissLatency::total    199987000                       # number of ReadSharedReq MSHR miss ticks (Tick)
system.l2cache.ReadSharedReq.mshrMissRate::cpu.data     0.308333                       # mshr miss rate for ReadSharedReq accesses (Ratio)
system.l2cache.ReadSharedReq.mshrMissRate::total     0.308333                       # mshr miss rate for ReadSharedReq accesses (Ratio)
system.l2cache.ReadSharedReq.avgMshrMissLatency::cpu.data 71119.132290                       # average ReadSharedReq mshr miss latency ((Tick/Count))
system.l2cache.ReadSharedReq.avgMshrMissLatency::total 71119.132290                       # average ReadSharedReq mshr miss latency ((Tick/Count))
system.l2cache.WritebackClean.hits::writebacks          436                       # number of WritebackClean hits (Count)
system.l2cache.WritebackClean.hits::total          436                       # number of WritebackClean hits (Count)
system.l2cache.WritebackClean.accesses::writebacks          436                       # number of WritebackClean accesses(hits+misses) (Count)
system.l2cache.WritebackClean.accesses::total          436                       # number of WritebackClean accesses(hits+misses) (Count)
system.l2cache.WritebackDirty.hits::writebacks         6418                       # number of WritebackDirty hits (Count)
system.l2cache.WritebackDirty.hits::total         6418                       # number of WritebackDirty hits (Count)
system.l2cache.WritebackDirty.accesses::writebacks         6418                       # number of WritebackDirty accesses(hits+misses) (Count)
system.l2cache.WritebackDirty.accesses::total         6418                       # number of WritebackDirty accesses(hits+misses) (Count)
system.l2cache.power_state.pwrStateResidencyTicks::UNDEFINED  56633962000                       # Cumulative time (in ticks) in various power states (Tick)
system.l2cache.tags.tagsInUse             1018.418429                       # Average ticks per tags in use ((Tick/Count))
system.l2cache.tags.totalRefs                   23111                       # Total number of references to valid blocks. (Count)
system.l2cache.tags.sampledRefs                  4968                       # Sample count of references to valid blocks. (Count)
system.l2cache.tags.avgRefs                  4.651973                       # Average number of references to valid blocks. ((Count/Count))
system.l2cache.tags.warmupTick                  77000                       # The tick when the warmup percentage was hit. (Tick)
system.l2cache.tags.occupancies::writebacks    13.839584                       # Average occupied blocks per tick, per requestor ((Count/Tick))
system.l2cache.tags.occupancies::cpu.inst    19.024518                       # Average occupied blocks per tick, per requestor ((Count/Tick))
system.l2cache.tags.occupancies::cpu.data   985.554326                       # Average occupied blocks per tick, per requestor ((Count/Tick))
system.l2cache.tags.avgOccs::writebacks      0.013515                       # Average percentage of cache occupancy ((Ratio/Tick))
system.l2cache.tags.avgOccs::cpu.inst        0.018579                       # Average percentage of cache occupancy ((Ratio/Tick))
system.l2cache.tags.avgOccs::cpu.data        0.962455                       # Average percentage of cache occupancy ((Ratio/Tick))
system.l2cache.tags.avgOccs::total           0.994549                       # Average percentage of cache occupancy ((Ratio/Tick))
system.l2cache.tags.occupanciesTaskId::1024         1024                       # Occupied blocks per task id (Count)
system.l2cache.tags.ageTaskId_1024::0              87                       # Occupied blocks per task id, per block age (Count)
system.l2cache.tags.ageTaskId_1024::1              93                       # Occupied blocks per task id, per block age (Count)
system.l2cache.tags.ageTaskId_1024::2             255                       # Occupied blocks per task id, per block age (Count)
system.l2cache.tags.ageTaskId_1024::3             359                       # Occupied blocks per task id, per block age (Count)
system.l2cache.tags.ageTaskId_1024::4             230                       # Occupied blocks per task id, per block age (Count)
system.l2cache.tags.ratioOccsTaskId::1024            1                       # Ratio of occupied blocks and all blocks, per task id (Ratio)
system.l2cache.tags.tagAccesses                189960                       # Number of tag accesses (Count)
system.l2cache.tags.dataAccesses               189960                       # Number of data accesses (Count)
system.l2cache.tags.power_state.pwrStateResidencyTicks::UNDEFINED  56633962000                       # Cumulative time (in ticks) in various power states (Tick)
system.mem_ctrl.avgPriority_writebacks::samples      1704.00                       # Average QoS priority value for accepted requests (Count)
system.mem_ctrl.avgPriority_cpu.inst::samples       531.00                       # Average QoS priority value for accepted requests (Count)
system.mem_ctrl.avgPriority_cpu.data::samples      4190.00                       # Average QoS priority value for accepted requests (Count)
system.mem_ctrl.priorityMinLatency       0.000000018750                       # per QoS priority minimum request to response latency (Second)
system.mem_ctrl.priorityMaxLatency       0.012752828500                       # per QoS priority maximum request to response latency (Second)
system.mem_ctrl.numReadWriteTurnArounds            95                       # Number of turnarounds from READ to WRITE (Count)
system.mem_ctrl.numWriteReadTurnArounds            95                       # Number of turnarounds from WRITE to READ (Count)
system.mem_ctrl.numStayReadState                25669                       # Number of times bus staying in READ state (Count)
system.mem_ctrl.numStayWriteState                1591                       # Number of times bus staying in WRITE state (Count)
system.mem_ctrl.readReqs                         4780                       # Number of read requests accepted (Count)
system.mem_ctrl.writeReqs                        1704                       # Number of write requests accepted (Count)
system.mem_ctrl.readBursts                       4780                       # Number of controller read bursts, including those serviced by the write queue (Count)
system.mem_ctrl.writeBursts                      1704                       # Number of controller write bursts, including those merged in the write queue (Count)
system.mem_ctrl.servicedByWrQ                      59                       # Number of controller read bursts serviced by the write queue (Count)
system.mem_ctrl.mergedWrBursts                      0                       # Number of controller write bursts merged with an existing one (Count)
system.mem_ctrl.neitherReadNorWriteReqs             0                       # Number of requests that are neither read nor write (Count)
system.mem_ctrl.avgRdQLen                        1.00                       # Average read queue length when enqueuing ((Count/Tick))
system.mem_ctrl.avgWrQLen                       24.14                       # Average write queue length when enqueuing ((Count/Tick))
system.mem_ctrl.numRdRetry                          0                       # Number of times read queue was full causing retry (Count)
system.mem_ctrl.numWrRetry                          0                       # Number of times write queue was full causing retry (Count)
system.mem_ctrl.readPktSize::0                      0                       # Read request sizes (log2) (Count)
system.mem_ctrl.readPktSize::1                      0                       # Read request sizes (log2) (Count)
system.mem_ctrl.readPktSize::2                      0                       # Read request sizes (log2) (Count)
system.mem_ctrl.readPktSize::3                      0                       # Read request sizes (log2) (Count)
system.mem_ctrl.readPktSize::4                      0                       # Read request sizes (log2) (Count)
system.mem_ctrl.readPktSize::5                      0                       # Read request sizes (log2) (Count)
system.mem_ctrl.readPktSize::6                   4780                       # Read request sizes (log2) (Count)
system.mem_ctrl.writePktSize::0                     0                       # Write request sizes (log2) (Count)
system.mem_ctrl.writePktSize::1                     0                       # Write request sizes (log2) (Count)
system.mem_ctrl.writePktSize::2                     0                       # Write request sizes (log2) (Count)
system.mem_ctrl.writePktSize::3                     0                       # Write request sizes (log2) (Count)
system.mem_ctrl.writePktSize::4                     0                       # Write request sizes (log2) (Count)
system.mem_ctrl.writePktSize::5                     0                       # Write request sizes (log2) (Count)
system.mem_ctrl.writePktSize::6                  1704                       # Write request sizes (log2) (Count)
system.mem_ctrl.rdQLenPdf::0                     4721                       # What read queue length does an incoming req see (Count)
system.mem_ctrl.rdQLenPdf::1                        0                       # What read queue length does an incoming req see (Count)
system.mem_ctrl.rdQLenPdf::2                        0                       # What read queue length does an incoming req see (Count)
system.mem_ctrl.rdQLenPdf::3                        0                       # What read queue length does an incoming req see (Count)
system.mem_ctrl.rdQLenPdf::4                        0                       # What read queue length does an incoming req see (Count)
system.mem_ctrl.rdQLenPdf::5                        0                       # What read queue length does an incoming req see (Count)
system.mem_ctrl.rdQLenPdf::6                        0                       # What read queue length does an incoming req see (Count)
system.mem_ctrl.rdQLenPdf::7                        0                       # What read queue length does an incoming req see (Count)
system.mem_ctrl.rdQLenPdf::8                        0                       # What read queue length does an incoming req see (Count)
system.mem_ctrl.rdQLenPdf::9                        0                       # What read queue length does an incoming req see (Count)
system.mem_ctrl.rdQLenPdf::10                       0                       # What read queue length does an incoming req see (Count)
system.mem_ctrl.rdQLenPdf::11                       0                       # What read queue length does an incoming req see (Count)
system.mem_ctrl.rdQLenPdf::12                       0                       # What read queue length does an incoming req see (Count)
system.mem_ctrl.rdQLenPdf::13                       0                       # What read queue length does an incoming req see (Count)
system.mem_ctrl.rdQLenPdf::14                       0                       # What read queue length does an incoming req see (Count)
system.mem_ctrl.rdQLenPdf::15                       0                       # What read queue length does an incoming req see (Count)
system.mem_ctrl.rdQLenPdf::16                       0                       # What read queue length does an incoming req see (Count)
system.mem_ctrl.rdQLenPdf::17                       0                       # What read queue length does an incoming req see (Count)
system.mem_ctrl.rdQLenPdf::18                       0                       # What read queue length does an incoming req see (Count)
system.mem_ctrl.rdQLenPdf::19                       0                       # What read queue length does an incoming req see (Count)
system.mem_ctrl.rdQLenPdf::20                       0                       # What read queue length does an incoming req see (Count)
system.mem_ctrl.rdQLenPdf::21                       0                       # What read queue length does an incoming req see (Count)
system.mem_ctrl.rdQLenPdf::22                       0                       # What read queue length does an incoming req see (Count)
system.mem_ctrl.rdQLenPdf::23                       0                       # What read queue length does an incoming req see (Count)
system.mem_ctrl.rdQLenPdf::24                       0                       # What read queue length does an incoming req see (Count)
system.mem_ctrl.rdQLenPdf::25                       0                       # What read queue length does an incoming req see (Count)
system.mem_ctrl.rdQLenPdf::26                       0                       # What read queue length does an incoming req see (Count)
system.mem_ctrl.rdQLenPdf::27                       0                       # What read queue length does an incoming req see (Count)
system.mem_ctrl.rdQLenPdf::28                       0                       # What read queue length does an incoming req see (Count)
[...]
system.mem_ctrl.dram.bytesWritten::total       109056                       # Number of bytes written to this memory (Byte)
system.mem_ctrl.dram.numReads::cpu.inst           531                       # Number of read requests responded to by this memory (Count)
system.mem_ctrl.dram.numReads::cpu.data          4249                       # Number of read requests responded to by this memory (Count)
system.mem_ctrl.dram.numReads::total             4780                       # Number of read requests responded to by this memory (Count)
system.mem_ctrl.dram.numWrites::writebacks         1704                       # Number of write requests responded to by this memory (Count)
system.mem_ctrl.dram.numWrites::total            1704                       # Number of write requests responded to by this memory (Count)
system.mem_ctrl.dram.bwRead::cpu.inst          600064                       # Total read bandwidth from this memory ((Byte/Second))
system.mem_ctrl.dram.bwRead::cpu.data         4801642                       # Total read bandwidth from this memory ((Byte/Second))
system.mem_ctrl.dram.bwRead::total            5401706                       # Total read bandwidth from this memory ((Byte/Second))
system.mem_ctrl.dram.bwInstRead::cpu.inst       600064                       # Instruction read bandwidth from this memory ((Byte/Second))
system.mem_ctrl.dram.bwInstRead::total         600064                       # Instruction read bandwidth from this memory ((Byte/Second))
system.mem_ctrl.dram.bwWrite::writebacks      1925629                       # Write bandwidth from this memory ((Byte/Second))
system.mem_ctrl.dram.bwWrite::total           1925629                       # Write bandwidth from this memory ((Byte/Second))
system.mem_ctrl.dram.bwTotal::writebacks      1925629                       # Total bandwidth to/from this memory ((Byte/Second))
system.mem_ctrl.dram.bwTotal::cpu.inst         600064                       # Total bandwidth to/from this memory ((Byte/Second))
system.mem_ctrl.dram.bwTotal::cpu.data        4801642                       # Total bandwidth to/from this memory ((Byte/Second))
system.mem_ctrl.dram.bwTotal::total           7327335                       # Total bandwidth to/from this memory ((Byte/Second))
system.mem_ctrl.dram.readBursts                  4721                       # Number of DRAM read bursts (Count)
system.mem_ctrl.dram.writeBursts                 1686                       # Number of DRAM write bursts (Count)
system.mem_ctrl.dram.perBankRdBursts::0           402                       # Per bank write bursts (Count)
system.mem_ctrl.dram.perBankRdBursts::1           403                       # Per bank write bursts (Count)
system.mem_ctrl.dram.perBankRdBursts::2           315                       # Per bank write bursts (Count)
system.mem_ctrl.dram.perBankRdBursts::3           397                       # Per bank write bursts (Count)
system.mem_ctrl.dram.perBankRdBursts::4           245                       # Per bank write bursts (Count)
system.mem_ctrl.dram.perBankRdBursts::5           130                       # Per bank write bursts (Count)
system.mem_ctrl.dram.perBankRdBursts::6            52                       # Per bank write bursts (Count)
system.mem_ctrl.dram.perBankRdBursts::7           191                       # Per bank write bursts (Count)
system.mem_ctrl.dram.perBankRdBursts::8           317                       # Per bank write bursts (Count)
system.mem_ctrl.dram.perBankRdBursts::9           316                       # Per bank write bursts (Count)
system.mem_ctrl.dram.perBankRdBursts::10          355                       # Per bank write bursts (Count)
system.mem_ctrl.dram.perBankRdBursts::11          317                       # Per bank write bursts (Count)
system.mem_ctrl.dram.perBankRdBursts::12          331                       # Per bank write bursts (Count)
system.mem_ctrl.dram.perBankRdBursts::13          304                       # Per bank write bursts (Count)
system.mem_ctrl.dram.perBankRdBursts::14          324                       # Per bank write bursts (Count)
system.mem_ctrl.dram.perBankRdBursts::15          322                       # Per bank write bursts (Count)
system.mem_ctrl.dram.perBankWrBursts::0           125                       # Per bank write bursts (Count)
system.mem_ctrl.dram.perBankWrBursts::1           124                       # Per bank write bursts (Count)
system.mem_ctrl.dram.perBankWrBursts::2           121                       # Per bank write bursts (Count)
system.mem_ctrl.dram.perBankWrBursts::3           166                       # Per bank write bursts (Count)
system.mem_ctrl.dram.perBankWrBursts::4            64                       # Per bank write bursts (Count)
system.mem_ctrl.dram.perBankWrBursts::5            27                       # Per bank write bursts (Count)
system.mem_ctrl.dram.perBankWrBursts::6            17                       # Per bank write bursts (Count)
system.mem_ctrl.dram.perBankWrBursts::7            68                       # Per bank write bursts (Count)
system.mem_ctrl.dram.perBankWrBursts::8           121                       # Per bank write bursts (Count)
system.mem_ctrl.dram.perBankWrBursts::9           117                       # Per bank write bursts (Count)
system.mem_ctrl.dram.perBankWrBursts::10          124                       # Per bank write bursts (Count)
system.mem_ctrl.dram.perBankWrBursts::11          120                       # Per bank write bursts (Count)
system.mem_ctrl.dram.perBankWrBursts::12          121                       # Per bank write bursts (Count)
system.mem_ctrl.dram.perBankWrBursts::13          124                       # Per bank write bursts (Count)
system.mem_ctrl.dram.perBankWrBursts::14          125                       # Per bank write bursts (Count)
system.mem_ctrl.dram.perBankWrBursts::15          122                       # Per bank write bursts (Count)
system.mem_ctrl.dram.totQLat                 58450500                       # Total ticks spent queuing (Tick)
system.mem_ctrl.dram.totBusLat               23605000                       # Total ticks spent in databus transfers (Tick)
system.mem_ctrl.dram.totMemAccLat           146969250                       # Total ticks spent from burst creation until serviced by the DRAM (Tick)
system.mem_ctrl.dram.avgQLat                 12380.96                       # Average queueing delay per DRAM burst ((Tick/Count))
system.mem_ctrl.dram.avgBusLat                5000.00                       # Average bus latency per DRAM burst ((Tick/Count))
system.mem_ctrl.dram.avgMemAccLat            31130.96                       # Average memory access latency per DRAM burst ((Tick/Count))
system.mem_ctrl.dram.readRowHits                 2272                       # Number of row buffer hits during reads (Count)
system.mem_ctrl.dram.writeRowHits                1325                       # Number of row buffer hits during writes (Count)
system.mem_ctrl.dram.readRowHitRate             48.13                       # Row buffer hit rate for reads (Ratio)
system.mem_ctrl.dram.writeRowHitRate            78.59                       # Row buffer hit rate for writes (Ratio)
system.mem_ctrl.dram.bytesPerActivate::samples         2802                       # Bytes accessed per row activation (Byte)
system.mem_ctrl.dram.bytesPerActivate::mean   145.610278                       # Bytes accessed per row activation (Byte)
system.mem_ctrl.dram.bytesPerActivate::gmean   113.742373                       # Bytes accessed per row activation (Byte)
system.mem_ctrl.dram.bytesPerActivate::stdev   132.969445                       # Bytes accessed per row activation (Byte)
system.mem_ctrl.dram.bytesPerActivate::0-127         1324     47.25%     47.25% # Bytes accessed per row activation (Byte)
system.mem_ctrl.dram.bytesPerActivate::128-255         1125     40.15%     87.40% # Bytes accessed per row activation (Byte)
system.mem_ctrl.dram.bytesPerActivate::256-383          171      6.10%     93.50% # Bytes accessed per row activation (Byte)
system.mem_ctrl.dram.bytesPerActivate::384-511           84      3.00%     96.50% # Bytes accessed per row activation (Byte)
system.mem_ctrl.dram.bytesPerActivate::512-639           51      1.82%     98.32% # Bytes accessed per row activation (Byte)
system.mem_ctrl.dram.bytesPerActivate::640-767           18      0.64%     98.97% # Bytes accessed per row activation (Byte)
system.mem_ctrl.dram.bytesPerActivate::768-895           11      0.39%     99.36% # Bytes accessed per row activation (Byte)
system.mem_ctrl.dram.bytesPerActivate::896-1023            7      0.25%     99.61% # Bytes accessed per row activation (Byte)
system.mem_ctrl.dram.bytesPerActivate::1024-1151           11      0.39%    100.00% # Bytes accessed per row activation (Byte)
system.mem_ctrl.dram.bytesPerActivate::total         2802                       # Bytes accessed per row activation (Byte)
system.mem_ctrl.dram.dramBytesRead             302144                       # Total bytes read (Byte)
system.mem_ctrl.dram.dramBytesWritten          107904                       # Total bytes written (Byte)
system.mem_ctrl.dram.avgRdBW                 5.335032                       # Average DRAM read bandwidth in MiBytes/s ((Byte/Second))
system.mem_ctrl.dram.avgWrBW                 1.905288                       # Average DRAM write bandwidth in MiBytes/s ((Byte/Second))
system.mem_ctrl.dram.peakBW                  12800.00                       # Theoretical peak bandwidth in MiByte/s ((Byte/Second))
system.mem_ctrl.dram.busUtil                     0.06                       # Data bus utilization in percentage (Ratio)
system.mem_ctrl.dram.busUtilRead                 0.04                       # Data bus utilization in percentage for reads (Ratio)
system.mem_ctrl.dram.busUtilWrite                0.01                       # Data bus utilization in percentage for writes (Ratio)
system.mem_ctrl.dram.pageHitRate                56.14                       # Row buffer hit rate, read and write combined (Ratio)
system.mem_ctrl.dram.power_state.pwrStateResidencyTicks::UNDEFINED  56633962000                       # Cumulative time (in ticks) in various power states (Tick)
system.mem_ctrl.dram.rank0.actEnergy          8475180                       # Energy for activate commands per rank (pJ) (Joule)
system.mem_ctrl.dram.rank0.preEnergy          4493280                       # Energy for precharge commands per rank (pJ) (Joule)
system.mem_ctrl.dram.rank0.readEnergy        15243900                       # Energy for read commands per rank (pJ) (Joule)
system.mem_ctrl.dram.rank0.writeEnergy        3716640                       # Energy for write commands per rank (pJ) (Joule)
system.mem_ctrl.dram.rank0.refreshEnergy 4470276720.000001                       # Energy for refresh commands per rank (pJ) (Joule)
system.mem_ctrl.dram.rank0.actBackEnergy   2693234610                       # Energy for active background per rank (pJ) (Joule)
system.mem_ctrl.dram.rank0.preBackEnergy  19479454560                       # Energy for precharge background per rank (pJ) (Joule)
system.mem_ctrl.dram.rank0.actPowerDownEnergy            0                       # Energy for active power-down per rank (pJ) (Joule)
system.mem_ctrl.dram.rank0.prePowerDownEnergy            0                       # Energy for precharge power-down per rank (pJ) (Joule)
system.mem_ctrl.dram.rank0.selfRefreshEnergy            0                       # Energy for self refresh per rank (pJ) (Joule)
system.mem_ctrl.dram.rank0.totalEnergy    26674894890                       # Total energy per rank (pJ) (Joule)
system.mem_ctrl.dram.rank0.averagePower    471.005276                       # Core power per rank (mW) (Watt)
system.mem_ctrl.dram.rank0.totalIdleTime            0                       # Total Idle time Per DRAM Rank (Tick)
system.mem_ctrl.dram.rank0.pwrStateTime::IDLE  50616364250                       # Time in different power states (Tick)
system.mem_ctrl.dram.rank0.pwrStateTime::REF   1890980000                       # Time in different power states (Tick)
system.mem_ctrl.dram.rank0.pwrStateTime::SREF            0                       # Time in different power states (Tick)
system.mem_ctrl.dram.rank0.pwrStateTime::PRE_PDN            0                       # Time in different power states (Tick)
system.mem_ctrl.dram.rank0.pwrStateTime::ACT   4126617750                       # Time in different power states (Tick)
system.mem_ctrl.dram.rank0.pwrStateTime::ACT_PDN            0                       # Time in different power states (Tick)
system.mem_ctrl.dram.rank1.actEnergy         11588220                       # Energy for activate commands per rank (pJ) (Joule)
system.mem_ctrl.dram.rank1.preEnergy          6140310                       # Energy for precharge commands per rank (pJ) (Joule)
system.mem_ctrl.dram.rank1.readEnergy        18464040                       # Energy for read commands per rank (pJ) (Joule)
system.mem_ctrl.dram.rank1.writeEnergy        5084280                       # Energy for write commands per rank (pJ) (Joule)
system.mem_ctrl.dram.rank1.refreshEnergy 4470276720.000001                       # Energy for refresh commands per rank (pJ) (Joule)
system.mem_ctrl.dram.rank1.actBackEnergy   3608414070                       # Energy for active background per rank (pJ) (Joule)
system.mem_ctrl.dram.rank1.preBackEnergy  18708777120                       # Energy for precharge background per rank (pJ) (Joule)
system.mem_ctrl.dram.rank1.actPowerDownEnergy            0                       # Energy for active power-down per rank (pJ) (Joule)
system.mem_ctrl.dram.rank1.prePowerDownEnergy            0                       # Energy for precharge power-down per rank (pJ) (Joule)
system.mem_ctrl.dram.rank1.selfRefreshEnergy            0                       # Energy for self refresh per rank (pJ) (Joule)
system.mem_ctrl.dram.rank1.totalEnergy    26828744760                       # Total energy per rank (pJ) (Joule)
system.mem_ctrl.dram.rank1.averagePower    473.721841                       # Core power per rank (mW) (Watt)
system.mem_ctrl.dram.rank1.totalIdleTime            0                       # Total Idle time Per DRAM Rank (Tick)
system.mem_ctrl.dram.rank1.pwrStateTime::IDLE  48602914500                       # Time in different power states (Tick)
system.mem_ctrl.dram.rank1.pwrStateTime::REF   1890980000                       # Time in different power states (Tick)
system.mem_ctrl.dram.rank1.pwrStateTime::SREF            0                       # Time in different power states (Tick)
system.mem_ctrl.dram.rank1.pwrStateTime::PRE_PDN            0                       # Time in different power states (Tick)
system.mem_ctrl.dram.rank1.pwrStateTime::ACT   6140067500                       # Time in different power states (Tick)
system.mem_ctrl.dram.rank1.pwrStateTime::ACT_PDN            0                       # Time in different power states (Tick)
system.mem_ctrl.power_state.pwrStateResidencyTicks::UNDEFINED  56633962000                       # Cumulative time (in ticks) in various power states (Tick)
system.membus.transDist::ReadResp                3343                       # Transaction distribution (Count)
system.membus.transDist::WritebackDirty          1704                       # Transaction distribution (Count)
system.membus.transDist::CleanEvict              2005                       # Transaction distribution (Count)
system.membus.transDist::ReadExReq               1437                       # Transaction distribution (Count)
system.membus.transDist::ReadExResp              1437                       # Transaction distribution (Count)
system.membus.transDist::ReadSharedReq           3343                       # Transaction distribution (Count)
system.membus.pktCount_system.l2cache.mem_side_port::system.mem_ctrl.port        13269                       # Packet count per connected requestor and responder (Count)
system.membus.pktCount_system.l2cache.mem_side_port::total        13269                       # Packet count per connected requestor and responder (Count)
system.membus.pktCount::total                   13269                       # Packet count per connected requestor and responder (Count)
system.membus.pktSize_system.l2cache.mem_side_port::system.mem_ctrl.port       414976                       # Cumulative packet size per connected requestor and responder (Byte)
system.membus.pktSize_system.l2cache.mem_side_port::total       414976                       # Cumulative packet size per connected requestor and responder (Byte)
system.membus.pktSize::total                   414976                       # Cumulative packet size per connected requestor and responder (Byte)
system.membus.snoops                                0                       # Total snoops (Count)
system.membus.snoopTraffic                          0                       # Total snoop traffic (Byte)
system.membus.snoopFanout::samples               4780                       # Request fanout histogram (Count)
system.membus.snoopFanout::mean                     0                       # Request fanout histogram (Count)
system.membus.snoopFanout::stdev                    0                       # Request fanout histogram (Count)
system.membus.snoopFanout::underflows               0      0.00%      0.00% # Request fanout histogram (Count)
system.membus.snoopFanout::0                     4780    100.00%    100.00% # Request fanout histogram (Count)
system.membus.snoopFanout::1                        0      0.00%    100.00% # Request fanout histogram (Count)
system.membus.snoopFanout::overflows                0      0.00%    100.00% # Request fanout histogram (Count)
system.membus.snoopFanout::min_value                0                       # Request fanout histogram (Count)
system.membus.snoopFanout::max_value                0                       # Request fanout histogram (Count)
system.membus.snoopFanout::total                 4780                       # Request fanout histogram (Count)
system.membus.power_state.pwrStateResidencyTicks::UNDEFINED  56633962000                       # Cumulative time (in ticks) in various power states (Tick)
system.membus.reqLayer2.occupancy            15305000                       # Layer occupancy (ticks) (Tick)
system.membus.reqLayer2.utilization               0.0                       # Layer utilization (Ratio)
system.membus.respLayer0.occupancy           25692750                       # Layer occupancy (ticks) (Tick)
system.membus.respLayer0.utilization              0.0                       # Layer utilization (Ratio)
system.membus.snoop_filter.totRequests           8489                       # Total number of requests made to the snoop filter. (Count)
system.membus.snoop_filter.hitSingleRequests         3709                       # Number of requests hitting in the snoop filter with a single holder of the requested data. (Count)
system.membus.snoop_filter.hitMultiRequests            0                       # Number of requests hitting in the snoop filter with multiple (>1) holders of the requested data. (Count)
system.membus.snoop_filter.totSnoops                0                       # Total number of snoops made to the snoop filter. (Count)
system.membus.snoop_filter.hitSingleSnoops            0                       # Number of snoops hitting in the snoop filter with a single holder of the requested data. (Count)
system.membus.snoop_filter.hitMultiSnoops            0                       # Number of snoops hitting in the snoop filter with multiple (>1) holders of the requested data. (Count)
system.workload.inst.arm                            0                       # number of arm instructions executed (Count)
system.workload.inst.quiesce                        0                       # number of quiesce instructions executed (Count)

---------- End Simulation Statistics   ----------
